 Yearly Averaged GW/SW Rates for MODFLOW
 
 year:        2002
  0.0000000E+00
  0.0000000E+00
  0.0000000E+00
  0.0000000E+00
  0.0000000E+00
  0.0000000E+00
  0.0000000E+00
  0.0000000E+00
  0.0000000E+00
  0.0000000E+00
  0.0000000E+00
  0.0000000E+00
  0.0000000E+00
  0.0000000E+00
  0.0000000E+00
  0.0000000E+00
  0.0000000E+00
  0.0000000E+00
  0.0000000E+00
  0.0000000E+00
  0.0000000E+00
  0.0000000E+00
  0.0000000E+00
  0.0000000E+00
  0.0000000E+00
  0.0000000E+00
  0.0000000E+00
  0.0000000E+00
  0.0000000E+00
   1263.172    
   253.5294    
   253.5294    
   253.5294    
  0.0000000E+00
  0.0000000E+00
  0.0000000E+00
   1138.132    
   1138.132    
   1138.132    
   4909.189    
   4707.481    
   2150.358    
   527.4493    
   4474.123    
   4536.076    
   4686.951    
   3754.910    
  0.0000000E+00
  0.0000000E+00
  0.0000000E+00
  0.0000000E+00
   4608.272    
   5051.875    
  0.0000000E+00
   2501.862    
   2501.862    
   4338.014    
  0.0000000E+00
  0.0000000E+00
   1451.468    
   1451.468    
   1451.468    
   1344.358    
   1344.358    
   1344.358    
  0.0000000E+00
   4494.000    
   4538.952    
   4968.911    
   4956.812    
   3393.534    
   3517.626    
  0.0000000E+00
   4300.607    
  0.0000000E+00
  0.0000000E+00
   4957.299    
  0.0000000E+00
  0.0000000E+00
   1994.198    
   1994.198    
   1994.198    
  0.0000000E+00
  0.0000000E+00
  0.0000000E+00
  0.0000000E+00
   5611.262    
  0.0000000E+00
  0.0000000E+00
  0.0000000E+00
  0.0000000E+00
  0.0000000E+00
  0.0000000E+00
  0.0000000E+00
   5210.054    
  0.0000000E+00
  0.0000000E+00
  0.0000000E+00
  0.0000000E+00
  0.0000000E+00
  0.0000000E+00
  0.0000000E+00
   2232.165    
  0.0000000E+00
  0.0000000E+00
  0.0000000E+00
  0.0000000E+00
  0.0000000E+00
  0.0000000E+00
  0.0000000E+00
   4762.300    
  0.0000000E+00
  0.0000000E+00
  0.0000000E+00
  0.0000000E+00
  0.0000000E+00
  0.0000000E+00
  0.0000000E+00
   4800.777    
   4744.064    
  0.0000000E+00
  0.0000000E+00
  0.0000000E+00
  0.0000000E+00
  0.0000000E+00
  0.0000000E+00
  0.0000000E+00
  0.0000000E+00
   3931.926    
   4959.260    
  0.0000000E+00
  0.0000000E+00
  0.0000000E+00
  0.0000000E+00
  0.0000000E+00
  0.0000000E+00
   5485.331    
   1210.672    
   1210.672    
   1210.672    
  0.0000000E+00
  0.0000000E+00
  0.0000000E+00
  0.0000000E+00
  0.0000000E+00
  0.0000000E+00
  0.0000000E+00
  0.0000000E+00
  0.0000000E+00
  0.0000000E+00
   5015.398    
   4753.293    
   3715.782    
   769.8965    
   769.8965    
   769.8965    
  0.0000000E+00
  0.0000000E+00
  0.0000000E+00
   4572.242    
   4153.563    
   2182.264    
   1244.973    
   1244.973    
   1244.973    
   4122.209    
   3758.556    
  0.0000000E+00
   2082.623    
   2132.234    
   970.5959    
   1045.161    
   2351.525    
   2633.632    
   2924.307    
   1629.085    
   1629.085    
  0.0000000E+00
  0.0000000E+00
   4536.634    
   1179.809    
   941.0353    
   941.0353    
   913.4694    
   913.4694    
   1731.149    
   970.5959    
   1045.161    
  0.0000000E+00
   3862.518    
  0.0000000E+00
   553.7927    
   553.7927    
   553.7927    
   1653.917    
   1719.017    
   4425.623    
   1799.972    
  0.0000000E+00
  0.0000000E+00
   1754.599    
   1754.599    
   2507.585    
   1764.067    
  0.0000000E+00
   3195.286    
  0.0000000E+00
   1509.564    
   4024.768    
   1379.142    
   3726.065    
   1177.691    
   3807.511    
  0.0000000E+00
   952.5466    
   4109.556    
  0.0000000E+00
   766.2349    
  0.0000000E+00
  0.0000000E+00
  0.0000000E+00
   1325.780    
   1325.780    
   1727.697    
   1727.697    
   1727.697    
  0.0000000E+00
  0.0000000E+00
   415.3959    
   415.3959    
   415.3959    
  0.0000000E+00
  0.0000000E+00
  0.0000000E+00
  0.0000000E+00
   490.5885    
   5248.272    
  0.0000000E+00
  0.0000000E+00
  0.0000000E+00
   1070.826    
  0.0000000E+00
  0.0000000E+00
  0.0000000E+00
  -11.54895    
  -4.970592    
  0.0000000E+00
  0.0000000E+00
   5157.446    
   3741.347    
  0.0000000E+00
   496.1749    
  0.0000000E+00
   954.4316    
   292.9130    
  0.0000000E+00
  0.0000000E+00
   4561.298    
   1741.917    
   1741.917    
   1741.917    
  0.0000000E+00
   496.1749    
   496.1749    
   292.9130    
   292.9130    
  0.0000000E+00
  0.0000000E+00
  0.0000000E+00
   2872.047    
   2872.047    
  0.0000000E+00
  0.0000000E+00
   862.9277    
   1443.252    
  0.0000000E+00
  0.0000000E+00
  -1.215617    
  -1.215617    
   5490.098    
   2049.953    
   1425.785    
  -80.28173    
   2598.233    
   2598.233    
  0.0000000E+00
   686.9872    
   686.9872    
   686.9872    
   1387.593    
  -11.18770    
  -74.07850    
   1171.113    
   4926.980    
   2080.642    
  -40.31448    
   5165.440    
   2128.784    
  -27.95069    
  -24.18435    
   5131.902    
   2905.902    
  0.0000000E+00
  -48.98955    
   4554.009    
  0.0000000E+00
   2963.593    
  0.0000000E+00
  0.0000000E+00
  0.0000000E+00
   674.5457    
   2663.277    
   2663.277    
   1888.193    
   1888.193    
   605.0353    
   605.0353    
   605.0353    
   605.0353    
   605.0353    
  0.0000000E+00
  0.0000000E+00
  0.0000000E+00
  0.0000000E+00
   1234.212    
   1522.006    
   1522.006    
   1522.006    
   3809.810    
  0.0000000E+00
  0.0000000E+00
  0.0000000E+00
  0.0000000E+00
   907.7150    
   4544.752    
  0.0000000E+00
  0.0000000E+00
   5173.061    
  0.0000000E+00
  0.0000000E+00
  0.0000000E+00
   5626.460    
   5069.204    
  0.0000000E+00
  0.0000000E+00
   5405.022    
  0.0000000E+00
  0.0000000E+00
  0.0000000E+00
   5052.673    
  0.0000000E+00
  0.0000000E+00
  0.0000000E+00
  0.0000000E+00
  0.0000000E+00
  0.0000000E+00
  0.0000000E+00
  0.0000000E+00
  0.0000000E+00
  0.0000000E+00
   4315.128    
  0.0000000E+00
  0.0000000E+00
  0.0000000E+00
  0.0000000E+00
  0.0000000E+00
  0.0000000E+00
  0.0000000E+00
   3704.678    
  0.0000000E+00
  0.0000000E+00
  0.0000000E+00
  0.0000000E+00
  0.0000000E+00
   3061.946    
  0.0000000E+00
  0.0000000E+00
  0.0000000E+00
  0.0000000E+00
  0.0000000E+00
  0.0000000E+00
   2431.493    
   2488.452    
  0.0000000E+00
  0.0000000E+00
  0.0000000E+00
  0.0000000E+00
  0.0000000E+00
  0.0000000E+00
  0.0000000E+00
  0.0000000E+00
  0.0000000E+00
  0.0000000E+00
  0.0000000E+00
  0.0000000E+00
   1782.939    
   1819.506    
  0.0000000E+00
  0.0000000E+00
  0.0000000E+00
  0.0000000E+00
  0.0000000E+00
   1427.457    
   1359.552    
  0.0000000E+00
  0.0000000E+00
  0.0000000E+00
  0.0000000E+00
  0.0000000E+00
   145.3393    
   145.3393    
   145.3393    
   791.4539    
   791.4539    
   791.4539    
  0.0000000E+00
  0.0000000E+00
  0.0000000E+00
  0.0000000E+00
   2213.008    
   11720.91    
   9844.363    
  0.0000000E+00
   362.7981    
   1866.312    
   1847.899    
   1764.995    
   1629.417    
   1629.417    
   1629.417    
  0.0000000E+00
   28879.95    
  0.0000000E+00
  0.0000000E+00
  0.0000000E+00
  0.0000000E+00
  0.0000000E+00
   24187.80    
  0.0000000E+00
   29985.17    
  0.0000000E+00
  0.0000000E+00
  0.0000000E+00
   43753.78    
   2150.492    
   2150.492    
   2150.492    
  0.0000000E+00
  0.0000000E+00
  0.0000000E+00
   46216.15    
   2305.492    
  0.0000000E+00
   3059.815    
  0.0000000E+00
  0.0000000E+00
  0.0000000E+00
  0.0000000E+00
   6923.027    
   42321.74    
   3059.815    
   3059.815    
  0.0000000E+00
   49684.46    
   2897.473    
  0.0000000E+00
  0.0000000E+00
   26842.30    
   61093.08    
   3789.956    
   3672.112    
   11047.39    
   11047.39    
   11047.39    
   40367.65    
   20162.40    
   3672.112    
   41628.50    
   3371.002    
   42167.63    
  0.0000000E+00
   1734.469    
   1734.469    
   1416.756    
   1416.756    
   44171.98    
  0.0000000E+00
   3687.979    
   29729.01    
   29662.65    
   684.6116    
   2555.535    
  0.0000000E+00
   9287.370    
   29320.46    
   3808.368    
  0.0000000E+00
  0.0000000E+00
  0.0000000E+00
  0.0000000E+00
   8127.459    
  0.0000000E+00
  0.0000000E+00
   2223.013    
   2420.352    
  0.0000000E+00
  0.0000000E+00
   7820.447    
   7820.447    
   7820.447    
  0.0000000E+00
   576.0701    
   3005.388    
   4338.658    
   2557.976    
   2557.976    
   2557.976    
   288.4588    
   3612.286    
   3612.286    
   3612.286    
   698.9111    
   698.9111    
  0.0000000E+00
  0.0000000E+00
   21277.86    
   1363.571    
   3726.087    
   93.98581    
   2824.912    
  0.0000000E+00
  0.0000000E+00
  0.0000000E+00
   21547.60    
   3562.417    
   20743.23    
   19207.26    
   2977.008    
   605.1833    
   20725.05    
   3148.888    
   23661.68    
   3773.273    
   27375.34    
   3222.467    
   528.2975    
   26544.51    
   5704.965    
   3714.257    
   16664.53    
   5704.965    
   5704.965    
   5704.965    
  0.0000000E+00
   9313.472    
   9313.472    
   9313.472    
   27914.15    
  0.0000000E+00
   25915.51    
  0.0000000E+00
  0.0000000E+00
  0.0000000E+00
  0.0000000E+00
  0.0000000E+00
  0.0000000E+00
  0.0000000E+00
  0.0000000E+00
   12414.24    
  0.0000000E+00
  0.0000000E+00
  0.0000000E+00
  0.0000000E+00
  0.0000000E+00
   2548.380    
  0.0000000E+00
  0.0000000E+00
  0.0000000E+00
  0.0000000E+00
  0.0000000E+00
   11327.10    
   11327.10    
  0.0000000E+00
  0.0000000E+00
  0.0000000E+00
   7557.353    
   7557.353    
   7557.353    
  0.0000000E+00
  0.0000000E+00
  0.0000000E+00
   20020.38    
  0.0000000E+00
  0.0000000E+00
  0.0000000E+00
  0.0000000E+00
   19651.70    
   54.04866    
   657.1798    
   657.1798    
   657.1798    
   23628.22    
   20364.52    
   21.84036    
   749.2429    
   749.2429    
   17106.00    
   842.1780    
   14930.89    
  0.0000000E+00
  0.0000000E+00
  0.0000000E+00
  0.0000000E+00
  0.0000000E+00
   23468.52    
   5551.745    
   5551.745    
   5551.745    
  0.0000000E+00
   14517.91    
  0.0000000E+00
  0.0000000E+00
  0.0000000E+00
  0.0000000E+00
   12716.95    
   4270.077    
   4270.077    
   4270.077    
   6217.177    
   6217.177    
  0.0000000E+00
  0.0000000E+00
   11910.10    
   10127.10    
  0.0000000E+00
  0.0000000E+00
  0.0000000E+00
  0.0000000E+00
   12645.86    
   3083.267    
   3083.267    
  0.0000000E+00
   1965.904    
   1965.904    
   1965.904    
   1965.904    
   6635.333    
   7878.807    
   19304.10    
   8164.896    
   8418.728    
   9771.227    
   3319.631    
   3319.631    
   3319.631    
  0.0000000E+00
   11291.48    
   11595.45    
  0.0000000E+00
  0.0000000E+00
  0.0000000E+00
  0.0000000E+00
  0.0000000E+00
  0.0000000E+00
   19632.95    
   15806.54    
  0.0000000E+00
   20942.22    
  0.0000000E+00
   24964.51    
   14592.83    
   6013.333    
   9183.242    
   9183.242    
   9183.242    
   21436.56    
  0.0000000E+00
   10046.67    
   10046.67    
   31676.12    
   27918.50    
   43238.28    
   35781.64    
   33349.59    
   32006.31    
   43137.20    
   12365.83    
   12365.83    
   12365.83    
  0.0000000E+00
   35966.55    
   31790.76    
   15458.93    
   19128.42    
   26543.23    
   18259.38    
   17089.45    
   19169.21    
   8564.139    
   11335.01    
   14341.40    
   2755.567    
   4723.448    
   11530.69    
   37060.08    
   8541.491    
 
