 MODFLOW River Stage (L) (for each River Cell)
 --Calculated from APEX Channel Depth--
 
 Day:           1
 Channel depth for each MODFLOW River Cell
  0.0000000E+00
  0.0000000E+00
  0.0000000E+00
  0.0000000E+00
  0.0000000E+00
  0.0000000E+00
  0.0000000E+00
  0.0000000E+00
  0.0000000E+00
  0.0000000E+00
  0.0000000E+00
  0.0000000E+00
  0.0000000E+00
  0.0000000E+00
  0.0000000E+00
  0.0000000E+00
  0.0000000E+00
  0.0000000E+00
  0.0000000E+00
  0.0000000E+00
  0.0000000E+00
  0.0000000E+00
  0.0000000E+00
  0.0000000E+00
  0.0000000E+00
  0.0000000E+00
  0.0000000E+00
  0.0000000E+00
  0.0000000E+00
  0.0000000E+00
  0.0000000E+00
  0.0000000E+00
  0.0000000E+00
  0.0000000E+00
  0.0000000E+00
  0.0000000E+00
  0.0000000E+00
  0.0000000E+00
  0.0000000E+00
  0.0000000E+00
  0.0000000E+00
  0.0000000E+00
  0.0000000E+00
  0.0000000E+00
  0.0000000E+00
  0.0000000E+00
  0.0000000E+00
  0.0000000E+00
  0.0000000E+00
  0.0000000E+00
  0.0000000E+00
  0.0000000E+00
  0.0000000E+00
  0.0000000E+00
  0.0000000E+00
  0.0000000E+00
  0.0000000E+00
  0.0000000E+00
  0.0000000E+00
  0.0000000E+00
  0.0000000E+00
  0.0000000E+00
  0.0000000E+00
  0.0000000E+00
  0.0000000E+00
  0.0000000E+00
  0.0000000E+00
  0.0000000E+00
  0.0000000E+00
  0.0000000E+00
  0.0000000E+00
  0.0000000E+00
  0.0000000E+00
  0.0000000E+00
  0.0000000E+00
  0.0000000E+00
  0.0000000E+00
  0.0000000E+00
  0.0000000E+00
  0.0000000E+00
  0.0000000E+00
  0.0000000E+00
  0.0000000E+00
  0.0000000E+00
  0.0000000E+00
  0.0000000E+00
  0.0000000E+00
  0.0000000E+00
  0.0000000E+00
  0.0000000E+00
  0.0000000E+00
  0.0000000E+00
  0.0000000E+00
  0.0000000E+00
  0.0000000E+00
  0.0000000E+00
  0.0000000E+00
  0.0000000E+00
  0.0000000E+00
  0.0000000E+00
  0.0000000E+00
  0.0000000E+00
  0.0000000E+00
  0.0000000E+00
  0.0000000E+00
  0.0000000E+00
  0.0000000E+00
  0.0000000E+00
  0.0000000E+00
  0.0000000E+00
  0.0000000E+00
  0.0000000E+00
  0.0000000E+00
  0.0000000E+00
  0.0000000E+00
  0.0000000E+00
  0.0000000E+00
  0.0000000E+00
  0.0000000E+00
  0.0000000E+00
  0.0000000E+00
  0.0000000E+00
  0.0000000E+00
  0.0000000E+00
  0.0000000E+00
  0.0000000E+00
  0.0000000E+00
  0.0000000E+00
  0.0000000E+00
  0.0000000E+00
  0.0000000E+00
  0.0000000E+00
  0.0000000E+00
  0.0000000E+00
  0.0000000E+00
  0.0000000E+00
  0.0000000E+00
  0.0000000E+00
  0.0000000E+00
  0.0000000E+00
  0.0000000E+00
  0.0000000E+00
  0.0000000E+00
  0.0000000E+00
  0.0000000E+00
  0.0000000E+00
  0.0000000E+00
  0.0000000E+00
  0.0000000E+00
  0.0000000E+00
  0.0000000E+00
  0.0000000E+00
  0.0000000E+00
  0.0000000E+00
  0.0000000E+00
  0.0000000E+00
  0.0000000E+00
  0.0000000E+00
  0.0000000E+00
  0.0000000E+00
  0.0000000E+00
  0.0000000E+00
  0.0000000E+00
  0.0000000E+00
  0.0000000E+00
  0.0000000E+00
  0.0000000E+00
  0.0000000E+00
  0.0000000E+00
  0.0000000E+00
  0.0000000E+00
  0.0000000E+00
  0.0000000E+00
  0.0000000E+00
  0.0000000E+00
  0.0000000E+00
  0.0000000E+00
  0.0000000E+00
  0.0000000E+00
  0.0000000E+00
  0.0000000E+00
  0.0000000E+00
  0.0000000E+00
  0.0000000E+00
  0.0000000E+00
  0.0000000E+00
  0.0000000E+00
  0.0000000E+00
  0.0000000E+00
  0.0000000E+00
  0.0000000E+00
  0.0000000E+00
  0.0000000E+00
  0.0000000E+00
  0.0000000E+00
  0.0000000E+00
  0.0000000E+00
  0.0000000E+00
  0.0000000E+00
  0.0000000E+00
  0.0000000E+00
  0.0000000E+00
  0.0000000E+00
  0.0000000E+00
  0.0000000E+00
  0.0000000E+00
  0.0000000E+00
  0.0000000E+00
  0.0000000E+00
  0.0000000E+00
  0.0000000E+00
  0.0000000E+00
  0.0000000E+00
  0.0000000E+00
  0.0000000E+00
  0.0000000E+00
  0.0000000E+00
  0.0000000E+00
  0.0000000E+00
  0.0000000E+00
  0.0000000E+00
  0.0000000E+00
  0.0000000E+00
  0.0000000E+00
  0.0000000E+00
  0.0000000E+00
  0.0000000E+00
  0.0000000E+00
  0.0000000E+00
  0.0000000E+00
  0.0000000E+00
  0.0000000E+00
  0.0000000E+00
  0.0000000E+00
  0.0000000E+00
  0.0000000E+00
  0.0000000E+00
  0.0000000E+00
  0.0000000E+00
  0.0000000E+00
  0.0000000E+00
  0.0000000E+00
  0.0000000E+00
  0.0000000E+00
  0.0000000E+00
  0.0000000E+00
  0.0000000E+00
  0.0000000E+00
  0.0000000E+00
  0.0000000E+00
  0.0000000E+00
  0.0000000E+00
  0.0000000E+00
  0.0000000E+00
  0.0000000E+00
  0.0000000E+00
  0.0000000E+00
  0.0000000E+00
  0.0000000E+00
  0.0000000E+00
  0.0000000E+00
  0.0000000E+00
  0.0000000E+00
  0.0000000E+00
  0.0000000E+00
  0.0000000E+00
  0.0000000E+00
  0.0000000E+00
  0.0000000E+00
  0.0000000E+00
  0.0000000E+00
  0.0000000E+00
  0.0000000E+00
  0.0000000E+00
  0.0000000E+00
  0.0000000E+00
  0.0000000E+00
  0.0000000E+00
  0.0000000E+00
  0.0000000E+00
  0.0000000E+00
  0.0000000E+00
  0.0000000E+00
  0.0000000E+00
  0.0000000E+00
  0.0000000E+00
  0.0000000E+00
  0.0000000E+00
  0.0000000E+00
  0.0000000E+00
  0.0000000E+00
  0.0000000E+00
  0.0000000E+00
  0.0000000E+00
  0.0000000E+00
  0.0000000E+00
  0.0000000E+00
  0.0000000E+00
  0.0000000E+00
  0.0000000E+00
  0.0000000E+00
  0.0000000E+00
  0.0000000E+00
  0.0000000E+00
  0.0000000E+00
  0.0000000E+00
  0.0000000E+00
  0.0000000E+00
  0.0000000E+00
  0.0000000E+00
  0.0000000E+00
  0.0000000E+00
  0.0000000E+00
  0.0000000E+00
  0.0000000E+00
  0.0000000E+00
  0.0000000E+00
  0.0000000E+00
  0.0000000E+00
  0.0000000E+00
  0.0000000E+00
  0.0000000E+00
  0.0000000E+00
  0.0000000E+00
  0.0000000E+00
  0.0000000E+00
  0.0000000E+00
  0.0000000E+00
  0.0000000E+00
  0.0000000E+00
  0.0000000E+00
  0.0000000E+00
  0.0000000E+00
  0.0000000E+00
  0.0000000E+00
  0.0000000E+00
  0.0000000E+00
  0.0000000E+00
  0.0000000E+00
  0.0000000E+00
  0.0000000E+00
  0.0000000E+00
  0.0000000E+00
  0.0000000E+00
  0.0000000E+00
  0.0000000E+00
  0.0000000E+00
  0.0000000E+00
  0.0000000E+00
  0.0000000E+00
  0.0000000E+00
  0.0000000E+00
  0.0000000E+00
  0.0000000E+00
  0.0000000E+00
  0.0000000E+00
  0.0000000E+00
  0.0000000E+00
  0.0000000E+00
  0.0000000E+00
  0.0000000E+00
  0.0000000E+00
  0.0000000E+00
  0.0000000E+00
  0.0000000E+00
  0.0000000E+00
  0.0000000E+00
  0.0000000E+00
  0.0000000E+00
  0.0000000E+00
  0.0000000E+00
  0.0000000E+00
  0.0000000E+00
  0.0000000E+00
  0.0000000E+00
  0.0000000E+00
  0.0000000E+00
  0.0000000E+00
  0.0000000E+00
  0.0000000E+00
  0.0000000E+00
  0.0000000E+00
  0.0000000E+00
  0.0000000E+00
  0.0000000E+00
  0.0000000E+00
  0.0000000E+00
  0.0000000E+00
  0.0000000E+00
  0.0000000E+00
  0.0000000E+00
  0.0000000E+00
  0.0000000E+00
  0.0000000E+00
  0.0000000E+00
  0.0000000E+00
  0.0000000E+00
  0.0000000E+00
  0.0000000E+00
  0.0000000E+00
  0.0000000E+00
  0.0000000E+00
  0.0000000E+00
  0.0000000E+00
  0.0000000E+00
  0.0000000E+00
  0.0000000E+00
  0.0000000E+00
  0.0000000E+00
  0.0000000E+00
  0.0000000E+00
  0.0000000E+00
  0.0000000E+00
  0.0000000E+00
  0.0000000E+00
  0.0000000E+00
  0.0000000E+00
  0.0000000E+00
  0.0000000E+00
  0.0000000E+00
  0.0000000E+00
  0.0000000E+00
  0.0000000E+00
  0.0000000E+00
  0.0000000E+00
  0.0000000E+00
  0.0000000E+00
  0.0000000E+00
  0.0000000E+00
  0.0000000E+00
  0.0000000E+00
  0.0000000E+00
  0.0000000E+00
  0.0000000E+00
  0.0000000E+00
  0.0000000E+00
  0.0000000E+00
  0.0000000E+00
  0.0000000E+00
  0.0000000E+00
  0.0000000E+00
  0.0000000E+00
  0.0000000E+00
  0.0000000E+00
  0.0000000E+00
  0.0000000E+00
  0.0000000E+00
  0.0000000E+00
  0.0000000E+00
  0.0000000E+00
  0.0000000E+00
  0.0000000E+00
  0.0000000E+00
  0.0000000E+00
  0.0000000E+00
  0.0000000E+00
  0.0000000E+00
  0.0000000E+00
  0.0000000E+00
  0.0000000E+00
  0.0000000E+00
  0.0000000E+00
  0.0000000E+00
  0.0000000E+00
  0.0000000E+00
  0.0000000E+00
  0.0000000E+00
  0.0000000E+00
  0.0000000E+00
  0.0000000E+00
  0.0000000E+00
  0.0000000E+00
  0.0000000E+00
  0.0000000E+00
  0.0000000E+00
  0.0000000E+00
  0.0000000E+00
  0.0000000E+00
  0.0000000E+00
  0.0000000E+00
  0.0000000E+00
  0.0000000E+00
  0.0000000E+00
  0.0000000E+00
  0.0000000E+00
  0.0000000E+00
  0.0000000E+00
  0.0000000E+00
  0.0000000E+00
  0.0000000E+00
  0.0000000E+00
  0.0000000E+00
  0.0000000E+00
  0.0000000E+00
  0.0000000E+00
  0.0000000E+00
  0.0000000E+00
  0.0000000E+00
  0.0000000E+00
  0.0000000E+00
  0.0000000E+00
  0.0000000E+00
  0.0000000E+00
  0.0000000E+00
 
 Day:         100
 Channel depth for each MODFLOW River Cell
  0.0000000E+00
  0.0000000E+00
  0.0000000E+00
  0.0000000E+00
  0.0000000E+00
  0.0000000E+00
  0.0000000E+00
  0.0000000E+00
  0.0000000E+00
  0.0000000E+00
  0.0000000E+00
  0.0000000E+00
  0.0000000E+00
  0.0000000E+00
  0.0000000E+00
  0.0000000E+00
  0.0000000E+00
  0.0000000E+00
  0.0000000E+00
  0.0000000E+00
  0.0000000E+00
  0.0000000E+00
  0.0000000E+00
  0.0000000E+00
  0.0000000E+00
  0.0000000E+00
  0.0000000E+00
  0.0000000E+00
  0.0000000E+00
  0.0000000E+00
  0.0000000E+00
  0.0000000E+00
  0.0000000E+00
  0.0000000E+00
  0.0000000E+00
  0.0000000E+00
  0.0000000E+00
  0.0000000E+00
  0.0000000E+00
  0.0000000E+00
  0.0000000E+00
  0.0000000E+00
  0.0000000E+00
  0.0000000E+00
  0.0000000E+00
  0.0000000E+00
  0.0000000E+00
  0.0000000E+00
  0.0000000E+00
  0.0000000E+00
  0.0000000E+00
  0.0000000E+00
  0.0000000E+00
  0.0000000E+00
  0.0000000E+00
  0.0000000E+00
  0.0000000E+00
  0.0000000E+00
  0.0000000E+00
  0.0000000E+00
  0.0000000E+00
  0.0000000E+00
  0.0000000E+00
  0.0000000E+00
  0.0000000E+00
  0.0000000E+00
  0.0000000E+00
  0.0000000E+00
  0.0000000E+00
  0.0000000E+00
  0.0000000E+00
  0.0000000E+00
  0.0000000E+00
  0.0000000E+00
  0.0000000E+00
  0.0000000E+00
  0.0000000E+00
  0.0000000E+00
  0.0000000E+00
  0.0000000E+00
  0.0000000E+00
  0.0000000E+00
  0.0000000E+00
  0.0000000E+00
  0.0000000E+00
  0.0000000E+00
  0.0000000E+00
  0.0000000E+00
  0.0000000E+00
  0.0000000E+00
  0.0000000E+00
  0.0000000E+00
  0.0000000E+00
  0.0000000E+00
  0.0000000E+00
  0.0000000E+00
  0.0000000E+00
  0.0000000E+00
  0.0000000E+00
  0.0000000E+00
  0.0000000E+00
  4.6173725E-03
  0.0000000E+00
  0.0000000E+00
  0.0000000E+00
  0.0000000E+00
  0.0000000E+00
  0.0000000E+00
  0.0000000E+00
  0.0000000E+00
  7.3042903E-03
  0.0000000E+00
  0.0000000E+00
  0.0000000E+00
  0.0000000E+00
  0.0000000E+00
  7.3042903E-03
  0.0000000E+00
  0.0000000E+00
  0.0000000E+00
  7.3042908E-03
  0.0000000E+00
  0.0000000E+00
  0.0000000E+00
  0.0000000E+00
  0.0000000E+00
  0.0000000E+00
  0.0000000E+00
  7.3042903E-03
  0.0000000E+00
  2.8127241E-03
  0.0000000E+00
  0.0000000E+00
  0.0000000E+00
  0.0000000E+00
  0.0000000E+00
  7.3042898E-03
  4.3974463E-03
  0.0000000E+00
  7.3042903E-03
  7.3042898E-03
  7.6202145E-03
  7.3042903E-03
  7.3042908E-03
  7.6202145E-03
  7.3042903E-03
  7.6202140E-03
  7.3042908E-03
  7.6202145E-03
  7.3042903E-03
  7.6202140E-03
  7.3042898E-03
  0.0000000E+00
  7.6202145E-03
  7.3042898E-03
  0.0000000E+00
  7.6202145E-03
  0.0000000E+00
  0.0000000E+00
  0.0000000E+00
  2.5269703E-03
  6.8473001E-03
  0.0000000E+00
  0.0000000E+00
  5.4075997E-03
  0.0000000E+00
  0.0000000E+00
  0.0000000E+00
  7.2446084E-03
  7.2446084E-03
  0.0000000E+00
  0.0000000E+00
  0.0000000E+00
  8.0649499E-03
  0.0000000E+00
  0.0000000E+00
  0.0000000E+00
  0.0000000E+00
  0.0000000E+00
  0.0000000E+00
  7.2446084E-03
  7.2446084E-03
  0.0000000E+00
  0.0000000E+00
  8.0649499E-03
  0.0000000E+00
  0.0000000E+00
  7.2446079E-03
  4.6828389E-03
  0.0000000E+00
  5.7277600E-03
  8.0649499E-03
  0.0000000E+00
  0.0000000E+00
  7.2376104E-03
  1.0218747E-03
  8.0649499E-03
  0.0000000E+00
  0.0000000E+00
  7.2376104E-03
  3.5896702E-03
  8.0649499E-03
  0.0000000E+00
  7.2376104E-03
  2.1972463E-03
  8.0649499E-03
  0.0000000E+00
  0.0000000E+00
  7.2376104E-03
  7.2376099E-03
  7.6861680E-03
  0.0000000E+00
  7.2376109E-03
  7.8244191E-03
  0.0000000E+00
  0.0000000E+00
  7.2376099E-03
  7.8244191E-03
  0.0000000E+00
  7.1933009E-03
  7.8244191E-03
  0.0000000E+00
  0.0000000E+00
  0.0000000E+00
  7.1534892E-03
  7.1534887E-03
  6.9743837E-03
  1.6257353E-03
  0.0000000E+00
  0.0000000E+00
  0.0000000E+00
  0.0000000E+00
  7.1534892E-03
  7.4516269E-03
  6.0050120E-03
  0.0000000E+00
  0.0000000E+00
  0.0000000E+00
  1.7281231E-02
  1.6421059E-02
  0.0000000E+00
  0.0000000E+00
  1.7281231E-02
  0.0000000E+00
  0.0000000E+00
  0.0000000E+00
  1.7281231E-02
  1.7281231E-02
  0.0000000E+00
  0.0000000E+00
  1.7281231E-02
  0.0000000E+00
  0.0000000E+00
  1.7281231E-02
  0.0000000E+00
  0.0000000E+00
  0.0000000E+00
  0.0000000E+00
  0.0000000E+00
  0.0000000E+00
  1.7281231E-02
  0.0000000E+00
  0.0000000E+00
  0.0000000E+00
  0.0000000E+00
  1.7281231E-02
  0.0000000E+00
  0.0000000E+00
  0.0000000E+00
  0.0000000E+00
  0.0000000E+00
  1.7281231E-02
  0.0000000E+00
  0.0000000E+00
  0.0000000E+00
  0.0000000E+00
  0.0000000E+00
  0.0000000E+00
  1.7281231E-02
  1.7281231E-02
  0.0000000E+00
  0.0000000E+00
  0.0000000E+00
  0.0000000E+00
  0.0000000E+00
  0.0000000E+00
  0.0000000E+00
  0.0000000E+00
  1.7281231E-02
  1.7281231E-02
  0.0000000E+00
  0.0000000E+00
  0.0000000E+00
  0.0000000E+00
  0.0000000E+00
  7.3534693E-03
  1.7281231E-02
  0.0000000E+00
  0.0000000E+00
  0.0000000E+00
  0.0000000E+00
  9.8000083E-04
  8.5846474E-03
  0.0000000E+00
  0.0000000E+00
  0.0000000E+00
  1.0214964E-02
  7.8881038E-03
  1.7272264E-02
  0.0000000E+00
  1.0214964E-02
  1.0214964E-02
  1.0214964E-02
  1.0214964E-02
  7.5852056E-03
  0.0000000E+00
  7.3175086E-03
  0.0000000E+00
  7.3175086E-03
  0.0000000E+00
  7.3175086E-03
  0.0000000E+00
  0.0000000E+00
  7.3175086E-03
  1.5699383E-02
  0.0000000E+00
  0.0000000E+00
  7.3175090E-03
  1.8242141E-02
  0.0000000E+00
  0.0000000E+00
  7.3152492E-03
  7.2677294E-03
  1.8242141E-02
  0.0000000E+00
  7.2677294E-03
  1.8242141E-02
  0.0000000E+00
  7.2677294E-03
  7.2677294E-03
  1.8242141E-02
  2.5597883E-03
  7.2677289E-03
  7.2677294E-03
  1.8242141E-02
  7.2284220E-03
  1.8242141E-02
  7.2284220E-03
  1.8242141E-02
  1.8242141E-02
  7.2284224E-03
  1.8242141E-02
  7.2284220E-03
  7.2284215E-03
  1.8242141E-02
  1.8242141E-02
  0.0000000E+00
  7.2284220E-03
  7.2284215E-03
  1.8242141E-02
  0.0000000E+00
  0.0000000E+00
  0.0000000E+00
  7.2284220E-03
  0.0000000E+00
  1.8242141E-02
  1.8242141E-02
  0.0000000E+00
  0.0000000E+00
  4.6832366E-03
  7.5388122E-03
  7.5388122E-03
  7.5388122E-03
  7.9717170E-03
  1.8242141E-02
  1.8242141E-02
  5.1250313E-03
  0.0000000E+00
  0.0000000E+00
  7.1884403E-03
  7.5388122E-03
  7.5388122E-03
  1.7555675E-02
  1.6885908E-02
  0.0000000E+00
  0.0000000E+00
  7.1884408E-03
  7.5388118E-03
  7.1884403E-03
  7.1884403E-03
  7.5388122E-03
  7.5388122E-03
  7.1884403E-03
  7.5388122E-03
  7.1884403E-03
  7.5388122E-03
  7.1884403E-03
  7.5388127E-03
  7.5388122E-03
  7.3017902E-03
  7.5388122E-03
  7.1884403E-03
  7.4508255E-03
  7.3473533E-03
  7.3124692E-03
  0.0000000E+00
  7.3133847E-03
  0.0000000E+00
  7.3133847E-03
  0.0000000E+00
  7.3133851E-03
  0.0000000E+00
  0.0000000E+00
  3.2083399E-03
  0.0000000E+00
  0.0000000E+00
  4.8254672E-03
  0.0000000E+00
  0.0000000E+00
  7.2841174E-03
  0.0000000E+00
  0.0000000E+00
  0.0000000E+00
  7.2841179E-03
  1.2028600E-02
  2.4040788E-02
  7.2841183E-03
  7.2841179E-03
  2.4040788E-02
  2.4040790E-02
  7.2841179E-03
  2.4040788E-02
  7.2841174E-03
  0.0000000E+00
  0.0000000E+00
  0.0000000E+00
  7.2317328E-03
  1.4918682E-02
  6.4760451E-03
  0.0000000E+00
  0.0000000E+00
  7.2317324E-03
  5.0743595E-03
  1.4370986E-03
  0.0000000E+00
  0.0000000E+00
  7.2317333E-03
  7.2317328E-03
  0.0000000E+00
  7.2317328E-03
  7.2317333E-03
  0.0000000E+00
  6.1872154E-03
  7.2317328E-03
  7.2317328E-03
  7.2050449E-03
  7.2050449E-03
  7.2050444E-03
  7.1981484E-03
  4.1872263E-03
  0.0000000E+00
  7.1981484E-03
  7.1981489E-03
  0.0000000E+00
  0.0000000E+00
  0.0000000E+00
  0.0000000E+00
  0.0000000E+00
  0.0000000E+00
  7.1981489E-03
  7.1981484E-03
  0.0000000E+00
  7.1981484E-03
  0.0000000E+00
  7.1981484E-03
  7.1981484E-03
  7.1776081E-03
  4.6296380E-03
  7.1981489E-03
  7.1646627E-03
  7.1659475E-03
  7.1776081E-03
  7.1646627E-03
  7.1646627E-03
  7.1646627E-03
  7.1549546E-03
  7.1549546E-03
  6.1687706E-03
  7.1549541E-03
  7.1549546E-03
  7.1549546E-03
  7.1549546E-03
  7.1549546E-03
  7.1549551E-03
  7.1549546E-03
  7.1549551E-03
  7.1549546E-03
  7.1549541E-03
  7.1549546E-03
  7.1549546E-03
  7.1549546E-03
  7.1549546E-03
  7.1549541E-03
  7.1549546E-03
