 Monthly Averaged GW/SW Rates for MODFLOW
 
 month:           1 year:        2002
  0.0000000E+00
  0.0000000E+00
  0.0000000E+00
  0.0000000E+00
  0.0000000E+00
  0.0000000E+00
  0.0000000E+00
  0.0000000E+00
  0.0000000E+00
  0.0000000E+00
  0.0000000E+00
  0.0000000E+00
  0.0000000E+00
  0.0000000E+00
  0.0000000E+00
  0.0000000E+00
  0.0000000E+00
  0.0000000E+00
  0.0000000E+00
  0.0000000E+00
  0.0000000E+00
  0.0000000E+00
  0.0000000E+00
  0.0000000E+00
  0.0000000E+00
  0.0000000E+00
  0.0000000E+00
  0.0000000E+00
  0.0000000E+00
  0.0000000E+00
  0.0000000E+00
  0.0000000E+00
  0.0000000E+00
  0.0000000E+00
  0.0000000E+00
  0.0000000E+00
  0.0000000E+00
  0.0000000E+00
  0.0000000E+00
  0.0000000E+00
  0.0000000E+00
  0.0000000E+00
  0.0000000E+00
  0.0000000E+00
  0.0000000E+00
  0.0000000E+00
  0.0000000E+00
  0.0000000E+00
  0.0000000E+00
  0.0000000E+00
  0.0000000E+00
  0.0000000E+00
  0.0000000E+00
  0.0000000E+00
  0.0000000E+00
  0.0000000E+00
  0.0000000E+00
  0.0000000E+00
  0.0000000E+00
  0.0000000E+00
  0.0000000E+00
  0.0000000E+00
  0.0000000E+00
  0.0000000E+00
  0.0000000E+00
  0.0000000E+00
  0.0000000E+00
  0.0000000E+00
  0.0000000E+00
  0.0000000E+00
  0.0000000E+00
  0.0000000E+00
  0.0000000E+00
  0.0000000E+00
  0.0000000E+00
  0.0000000E+00
  0.0000000E+00
  0.0000000E+00
  0.0000000E+00
  0.0000000E+00
  0.0000000E+00
  0.0000000E+00
  0.0000000E+00
  0.0000000E+00
  0.0000000E+00
  0.0000000E+00
  0.0000000E+00
  0.0000000E+00
  0.0000000E+00
  0.0000000E+00
  0.0000000E+00
  0.0000000E+00
  0.0000000E+00
  0.0000000E+00
  0.0000000E+00
  0.0000000E+00
  0.0000000E+00
  0.0000000E+00
  0.0000000E+00
  0.0000000E+00
  0.0000000E+00
  0.0000000E+00
  0.0000000E+00
  0.0000000E+00
  0.0000000E+00
  0.0000000E+00
  0.0000000E+00
  0.0000000E+00
  0.0000000E+00
  0.0000000E+00
  0.0000000E+00
  0.0000000E+00
  0.0000000E+00
  0.0000000E+00
  0.0000000E+00
  0.0000000E+00
  0.0000000E+00
  0.0000000E+00
  0.0000000E+00
  0.0000000E+00
  0.0000000E+00
  0.0000000E+00
  0.0000000E+00
  0.0000000E+00
  0.0000000E+00
  0.0000000E+00
  0.0000000E+00
  0.0000000E+00
  0.0000000E+00
  0.0000000E+00
  0.0000000E+00
  0.0000000E+00
  0.0000000E+00
  0.0000000E+00
  0.0000000E+00
  0.0000000E+00
  0.0000000E+00
  0.0000000E+00
  0.0000000E+00
  0.0000000E+00
  0.0000000E+00
  0.0000000E+00
  0.0000000E+00
  0.0000000E+00
  0.0000000E+00
  0.0000000E+00
  0.0000000E+00
  0.0000000E+00
  0.0000000E+00
  0.0000000E+00
  0.0000000E+00
  0.0000000E+00
  0.0000000E+00
  0.0000000E+00
  0.0000000E+00
  0.0000000E+00
  0.0000000E+00
  0.0000000E+00
  0.0000000E+00
  0.0000000E+00
  0.0000000E+00
  0.0000000E+00
  0.0000000E+00
  0.0000000E+00
  0.0000000E+00
  0.0000000E+00
  0.0000000E+00
  0.0000000E+00
  0.0000000E+00
  0.0000000E+00
  0.0000000E+00
  0.0000000E+00
  0.0000000E+00
  0.0000000E+00
  0.0000000E+00
  0.0000000E+00
  0.0000000E+00
  0.0000000E+00
  0.0000000E+00
  0.0000000E+00
  0.0000000E+00
  0.0000000E+00
  0.0000000E+00
  0.0000000E+00
  0.0000000E+00
  0.0000000E+00
  0.0000000E+00
  0.0000000E+00
  0.0000000E+00
  0.0000000E+00
  0.0000000E+00
  0.0000000E+00
  0.0000000E+00
  0.0000000E+00
  0.0000000E+00
  0.0000000E+00
  0.0000000E+00
  0.0000000E+00
  0.0000000E+00
  0.0000000E+00
  0.0000000E+00
  0.0000000E+00
  0.0000000E+00
  0.0000000E+00
  0.0000000E+00
  0.0000000E+00
  0.0000000E+00
  0.0000000E+00
  0.0000000E+00
  0.0000000E+00
  0.0000000E+00
  0.0000000E+00
  0.0000000E+00
  0.0000000E+00
  0.0000000E+00
  0.0000000E+00
  0.0000000E+00
  0.0000000E+00
  0.0000000E+00
  0.0000000E+00
  0.0000000E+00
  0.0000000E+00
  0.0000000E+00
  0.0000000E+00
  0.0000000E+00
  0.0000000E+00
  0.0000000E+00
  0.0000000E+00
  0.0000000E+00
  0.0000000E+00
  0.0000000E+00
  0.0000000E+00
  0.0000000E+00
  0.0000000E+00
  0.0000000E+00
  0.0000000E+00
  0.0000000E+00
  0.0000000E+00
  0.0000000E+00
  0.0000000E+00
  0.0000000E+00
  0.0000000E+00
  0.0000000E+00
  0.0000000E+00
  0.0000000E+00
  0.0000000E+00
  0.0000000E+00
  0.0000000E+00
  0.0000000E+00
  0.0000000E+00
  0.0000000E+00
  0.0000000E+00
  0.0000000E+00
  0.0000000E+00
  0.0000000E+00
  0.0000000E+00
  0.0000000E+00
  0.0000000E+00
  0.0000000E+00
  0.0000000E+00
  0.0000000E+00
  0.0000000E+00
  0.0000000E+00
  0.0000000E+00
  0.0000000E+00
  0.0000000E+00
  0.0000000E+00
  0.0000000E+00
  0.0000000E+00
  0.0000000E+00
  0.0000000E+00
  0.0000000E+00
  0.0000000E+00
  0.0000000E+00
  0.0000000E+00
  0.0000000E+00
  0.0000000E+00
  0.0000000E+00
  0.0000000E+00
  0.0000000E+00
  0.0000000E+00
  0.0000000E+00
  0.0000000E+00
  0.0000000E+00
  0.0000000E+00
  0.0000000E+00
  0.0000000E+00
  0.0000000E+00
  0.0000000E+00
  0.0000000E+00
  0.0000000E+00
  -75.17072    
  0.0000000E+00
  0.0000000E+00
  0.0000000E+00
  0.0000000E+00
  0.0000000E+00
  0.0000000E+00
  0.0000000E+00
  0.0000000E+00
  0.0000000E+00
  0.0000000E+00
  0.0000000E+00
  0.0000000E+00
  0.0000000E+00
  0.0000000E+00
  0.0000000E+00
  0.0000000E+00
  0.0000000E+00
  0.0000000E+00
  0.0000000E+00
  0.0000000E+00
  0.0000000E+00
  0.0000000E+00
  0.0000000E+00
  0.0000000E+00
  0.0000000E+00
  0.0000000E+00
  0.0000000E+00
  0.0000000E+00
  0.0000000E+00
  0.0000000E+00
  0.0000000E+00
  0.0000000E+00
  0.0000000E+00
  0.0000000E+00
  0.0000000E+00
  0.0000000E+00
  0.0000000E+00
  0.0000000E+00
  0.0000000E+00
  0.0000000E+00
  0.0000000E+00
  0.0000000E+00
  0.0000000E+00
  0.0000000E+00
  0.0000000E+00
  0.0000000E+00
  0.0000000E+00
  0.0000000E+00
  0.0000000E+00
  0.0000000E+00
  0.0000000E+00
  0.0000000E+00
  0.0000000E+00
  0.0000000E+00
  0.0000000E+00
  0.0000000E+00
  0.0000000E+00
  0.0000000E+00
  0.0000000E+00
  0.0000000E+00
  0.0000000E+00
  0.0000000E+00
  0.0000000E+00
  0.0000000E+00
  0.0000000E+00
  0.0000000E+00
  0.0000000E+00
  0.0000000E+00
  0.0000000E+00
  0.0000000E+00
  0.0000000E+00
  0.0000000E+00
  0.0000000E+00
  0.0000000E+00
  0.0000000E+00
  0.0000000E+00
  0.0000000E+00
  0.0000000E+00
  0.0000000E+00
  0.0000000E+00
  0.0000000E+00
  0.0000000E+00
  0.0000000E+00
  0.0000000E+00
  0.0000000E+00
  0.0000000E+00
  0.0000000E+00
  0.0000000E+00
  0.0000000E+00
  0.0000000E+00
  0.0000000E+00
  0.0000000E+00
  0.0000000E+00
  0.0000000E+00
  0.0000000E+00
  0.0000000E+00
  0.0000000E+00
  0.0000000E+00
  0.0000000E+00
  0.0000000E+00
  0.0000000E+00
  0.0000000E+00
  0.0000000E+00
  0.0000000E+00
  0.0000000E+00
  0.0000000E+00
  0.0000000E+00
  0.0000000E+00
  0.0000000E+00
  0.0000000E+00
  0.0000000E+00
  0.0000000E+00
  0.0000000E+00
  0.0000000E+00
  0.0000000E+00
  0.0000000E+00
  0.0000000E+00
  0.0000000E+00
  0.0000000E+00
  0.0000000E+00
  0.0000000E+00
  0.0000000E+00
  0.0000000E+00
  0.0000000E+00
  0.0000000E+00
  0.0000000E+00
  0.0000000E+00
  0.0000000E+00
  0.0000000E+00
  0.0000000E+00
  0.0000000E+00
  0.0000000E+00
  0.0000000E+00
  0.0000000E+00
  0.0000000E+00
  0.0000000E+00
  0.0000000E+00
  0.0000000E+00
  0.0000000E+00
  0.0000000E+00
  0.0000000E+00
  0.0000000E+00
  0.0000000E+00
  0.0000000E+00
  0.0000000E+00
  0.0000000E+00
  0.0000000E+00
  0.0000000E+00
  0.0000000E+00
  0.0000000E+00
  0.0000000E+00
  0.0000000E+00
   278.5919    
   278.5919    
   278.5919    
  0.0000000E+00
  0.0000000E+00
  0.0000000E+00
  0.0000000E+00
   304.0412    
  0.0000000E+00
   403.5192    
  0.0000000E+00
  0.0000000E+00
  0.0000000E+00
  0.0000000E+00
  0.0000000E+00
  0.0000000E+00
   403.5192    
   403.5192    
  0.0000000E+00
  0.0000000E+00
   382.1100    
  0.0000000E+00
  0.0000000E+00
  0.0000000E+00
  0.0000000E+00
   499.6015    
   484.0676    
  0.0000000E+00
  0.0000000E+00
  0.0000000E+00
  0.0000000E+00
  0.0000000E+00
   484.0676    
  0.0000000E+00
   444.3748    
  0.0000000E+00
  0.0000000E+00
   228.6425    
   228.6425    
   186.7608    
   186.7608    
  0.0000000E+00
  0.0000000E+00
   486.1592    
  0.0000000E+00
  0.0000000E+00
   90.24728    
   336.8775    
  0.0000000E+00
  0.0000000E+00
  0.0000000E+00
   502.0294    
  0.0000000E+00
  0.0000000E+00
  0.0000000E+00
  0.0000000E+00
  0.0000000E+00
  0.0000000E+00
  0.0000000E+00
   293.0433    
   319.0573    
  0.0000000E+00
  0.0000000E+00
  0.0000000E+00
  0.0000000E+00
  0.0000000E+00
  0.0000000E+00
   84.47523    
   440.7121    
   636.2230    
   583.8432    
   583.8432    
   583.8432    
   38.02539    
   476.1813    
   476.1813    
   476.1813    
   92.21315    
   92.21315    
  0.0000000E+00
  0.0000000E+00
  0.0000000E+00
   199.9550    
   546.3954    
   28.82959    
   856.0005    
  0.0000000E+00
  0.0000000E+00
  0.0000000E+00
  0.0000000E+00
   522.3950    
  0.0000000E+00
  0.0000000E+00
   436.5506    
   88.74438    
  0.0000000E+00
   461.7547    
  0.0000000E+00
   553.3153    
  0.0000000E+00
   472.5449    
   77.46990    
   405.9159    
   1299.288    
   544.6616    
  0.0000000E+00
   1299.288    
   1299.288    
   1299.288    
  0.0000000E+00
   812.4550    
   812.4550    
   812.4550    
   1116.879    
  0.0000000E+00
   674.1245    
  0.0000000E+00
  0.0000000E+00
  0.0000000E+00
  0.0000000E+00
  0.0000000E+00
  0.0000000E+00
  0.0000000E+00
  0.0000000E+00
   472.6877    
  0.0000000E+00
  0.0000000E+00
  0.0000000E+00
  0.0000000E+00
  0.0000000E+00
   58.13857    
  0.0000000E+00
  0.0000000E+00
  0.0000000E+00
  0.0000000E+00
  0.0000000E+00
   370.5076    
   370.5076    
  0.0000000E+00
  0.0000000E+00
  0.0000000E+00
   714.0065    
   714.0065    
   714.0065    
  0.0000000E+00
  0.0000000E+00
  0.0000000E+00
   1135.824    
  0.0000000E+00
  0.0000000E+00
  0.0000000E+00
  0.0000000E+00
   1224.402    
  0.0000000E+00
  0.0000000E+00
  0.0000000E+00
  0.0000000E+00
   1235.710    
   1167.868    
  0.0000000E+00
  0.0000000E+00
  0.0000000E+00
   1310.289    
  0.0000000E+00
   1111.039    
  0.0000000E+00
  0.0000000E+00
  0.0000000E+00
  0.0000000E+00
  0.0000000E+00
   765.8268    
   752.5519    
   752.5519    
   752.5519    
  0.0000000E+00
   992.9901    
  0.0000000E+00
  0.0000000E+00
  0.0000000E+00
  0.0000000E+00
   1162.863    
   656.5912    
   656.5912    
   656.5912    
   190.8995    
   190.8995    
  0.0000000E+00
  0.0000000E+00
   309.2294    
   964.3287    
  0.0000000E+00
  0.0000000E+00
  0.0000000E+00
  0.0000000E+00
   624.3370    
   1784.841    
   1784.841    
  0.0000000E+00
   1131.193    
   1131.193    
   1131.193    
   1131.193    
   779.9309    
   334.3272    
   478.6569    
   1247.109    
   271.9788    
   258.2290    
   715.2184    
   715.2184    
   715.2184    
  0.0000000E+00
   298.4054    
   1415.712    
  0.0000000E+00
  0.0000000E+00
  0.0000000E+00
  0.0000000E+00
  0.0000000E+00
  0.0000000E+00
   518.8497    
   1467.814    
  0.0000000E+00
   1272.173    
  0.0000000E+00
   952.7831    
   385.6520    
   163.2219    
   988.6603    
   988.6603    
   988.6603    
   906.8287    
  0.0000000E+00
   260.8777    
   260.8777    
   1477.120    
   1384.003    
   1224.357    
   1822.628    
   1095.560    
   899.8502    
   1525.497    
   886.1973    
   886.1973    
   886.1973    
  0.0000000E+00
   1127.533    
   1255.359    
   434.6242    
   537.7908    
   1447.540    
   513.3582    
   814.7878    
   1197.915    
   322.3398    
   1394.468    
   589.8962    
   853.9591    
   1299.438    
   1310.658    
   1041.935    
   706.7076    
 
 month:           2 year:        2002
  0.0000000E+00
  0.0000000E+00
  0.0000000E+00
  0.0000000E+00
  0.0000000E+00
  0.0000000E+00
  0.0000000E+00
  0.0000000E+00
  0.0000000E+00
  0.0000000E+00
  0.0000000E+00
  0.0000000E+00
  0.0000000E+00
  0.0000000E+00
  0.0000000E+00
  0.0000000E+00
  0.0000000E+00
  0.0000000E+00
  0.0000000E+00
  0.0000000E+00
  0.0000000E+00
  0.0000000E+00
  0.0000000E+00
  0.0000000E+00
  0.0000000E+00
  0.0000000E+00
  0.0000000E+00
  0.0000000E+00
  0.0000000E+00
  0.0000000E+00
  0.0000000E+00
  0.0000000E+00
  0.0000000E+00
  0.0000000E+00
  0.0000000E+00
  0.0000000E+00
  0.0000000E+00
  0.0000000E+00
  0.0000000E+00
  0.0000000E+00
  0.0000000E+00
  0.0000000E+00
  0.0000000E+00
  0.0000000E+00
  0.0000000E+00
  0.0000000E+00
  0.0000000E+00
  0.0000000E+00
  0.0000000E+00
  0.0000000E+00
  0.0000000E+00
  0.0000000E+00
  0.0000000E+00
  0.0000000E+00
  0.0000000E+00
  0.0000000E+00
  0.0000000E+00
  0.0000000E+00
  0.0000000E+00
  0.0000000E+00
  0.0000000E+00
  0.0000000E+00
  0.0000000E+00
  0.0000000E+00
  0.0000000E+00
  0.0000000E+00
  0.0000000E+00
  0.0000000E+00
  0.0000000E+00
  0.0000000E+00
  0.0000000E+00
  0.0000000E+00
  0.0000000E+00
  0.0000000E+00
  0.0000000E+00
  0.0000000E+00
  0.0000000E+00
  0.0000000E+00
  0.0000000E+00
  0.0000000E+00
  0.0000000E+00
  0.0000000E+00
  0.0000000E+00
  0.0000000E+00
  0.0000000E+00
  0.0000000E+00
  0.0000000E+00
  0.0000000E+00
  0.0000000E+00
  0.0000000E+00
  0.0000000E+00
  0.0000000E+00
  0.0000000E+00
  0.0000000E+00
  0.0000000E+00
  0.0000000E+00
  0.0000000E+00
  0.0000000E+00
  0.0000000E+00
  0.0000000E+00
  0.0000000E+00
  0.0000000E+00
  0.0000000E+00
  0.0000000E+00
  0.0000000E+00
  0.0000000E+00
  0.0000000E+00
  0.0000000E+00
  0.0000000E+00
  0.0000000E+00
  0.0000000E+00
  0.0000000E+00
  0.0000000E+00
  0.0000000E+00
  0.0000000E+00
  0.0000000E+00
  0.0000000E+00
  0.0000000E+00
  0.0000000E+00
  0.0000000E+00
  0.0000000E+00
  0.0000000E+00
  0.0000000E+00
  0.0000000E+00
  0.0000000E+00
  0.0000000E+00
  0.0000000E+00
  0.0000000E+00
  0.0000000E+00
  0.0000000E+00
  0.0000000E+00
  0.0000000E+00
  0.0000000E+00
  0.0000000E+00
  0.0000000E+00
  0.0000000E+00
  0.0000000E+00
  0.0000000E+00
  0.0000000E+00
  0.0000000E+00
  0.0000000E+00
  0.0000000E+00
  0.0000000E+00
  0.0000000E+00
  0.0000000E+00
  0.0000000E+00
  0.0000000E+00
  0.0000000E+00
  0.0000000E+00
  0.0000000E+00
  0.0000000E+00
  0.0000000E+00
  0.0000000E+00
  0.0000000E+00
  0.0000000E+00
  0.0000000E+00
  0.0000000E+00
  0.0000000E+00
  0.0000000E+00
  0.0000000E+00
  0.0000000E+00
  0.0000000E+00
  0.0000000E+00
  0.0000000E+00
  0.0000000E+00
  0.0000000E+00
  0.0000000E+00
  0.0000000E+00
  0.0000000E+00
  0.0000000E+00
  0.0000000E+00
  0.0000000E+00
  0.0000000E+00
  0.0000000E+00
  0.0000000E+00
  0.0000000E+00
  0.0000000E+00
  0.0000000E+00
  0.0000000E+00
  0.0000000E+00
  0.0000000E+00
  0.0000000E+00
  0.0000000E+00
  0.0000000E+00
  0.0000000E+00
  0.0000000E+00
  0.0000000E+00
  0.0000000E+00
  0.0000000E+00
  0.0000000E+00
  0.0000000E+00
  0.0000000E+00
  0.0000000E+00
  0.0000000E+00
  0.0000000E+00
  0.0000000E+00
  0.0000000E+00
  0.0000000E+00
  0.0000000E+00
  0.0000000E+00
  0.0000000E+00
  0.0000000E+00
  0.0000000E+00
  0.0000000E+00
  0.0000000E+00
  0.0000000E+00
  0.0000000E+00
  0.0000000E+00
  0.0000000E+00
  0.0000000E+00
  0.0000000E+00
  0.0000000E+00
  0.0000000E+00
  0.0000000E+00
  0.0000000E+00
  0.0000000E+00
  0.0000000E+00
  0.0000000E+00
  0.0000000E+00
  0.0000000E+00
  0.0000000E+00
  0.0000000E+00
  0.0000000E+00
  0.0000000E+00
  0.0000000E+00
  0.0000000E+00
  0.0000000E+00
  0.0000000E+00
  0.0000000E+00
  0.0000000E+00
  0.0000000E+00
  0.0000000E+00
  0.0000000E+00
  0.0000000E+00
  0.0000000E+00
  0.0000000E+00
  0.0000000E+00
  0.0000000E+00
  0.0000000E+00
  0.0000000E+00
  0.0000000E+00
  0.0000000E+00
  0.0000000E+00
  0.0000000E+00
  0.0000000E+00
  0.0000000E+00
  0.0000000E+00
  0.0000000E+00
  0.0000000E+00
  0.0000000E+00
  0.0000000E+00
  0.0000000E+00
  0.0000000E+00
  0.0000000E+00
  0.0000000E+00
  0.0000000E+00
  0.0000000E+00
  0.0000000E+00
  0.0000000E+00
  0.0000000E+00
  0.0000000E+00
  0.0000000E+00
  0.0000000E+00
  0.0000000E+00
  0.0000000E+00
  0.0000000E+00
  0.0000000E+00
  0.0000000E+00
  0.0000000E+00
  0.0000000E+00
  0.0000000E+00
  0.0000000E+00
  0.0000000E+00
  0.0000000E+00
  0.0000000E+00
  0.0000000E+00
  0.0000000E+00
  0.0000000E+00
  0.0000000E+00
  0.0000000E+00
  0.0000000E+00
  0.0000000E+00
  0.0000000E+00
  0.0000000E+00
  0.0000000E+00
  0.0000000E+00
  0.0000000E+00
  0.0000000E+00
  0.0000000E+00
  0.0000000E+00
  0.0000000E+00
  -73.97754    
  0.0000000E+00
  0.0000000E+00
  0.0000000E+00
  0.0000000E+00
  0.0000000E+00
  0.0000000E+00
  0.0000000E+00
  0.0000000E+00
  0.0000000E+00
  0.0000000E+00
  0.0000000E+00
  0.0000000E+00
  0.0000000E+00
  0.0000000E+00
  0.0000000E+00
  0.0000000E+00
  0.0000000E+00
  0.0000000E+00
  0.0000000E+00
  0.0000000E+00
  0.0000000E+00
  0.0000000E+00
  0.0000000E+00
  0.0000000E+00
  0.0000000E+00
  0.0000000E+00
  0.0000000E+00
  0.0000000E+00
  0.0000000E+00
  0.0000000E+00
  0.0000000E+00
  0.0000000E+00
  0.0000000E+00
  0.0000000E+00
  0.0000000E+00
  0.0000000E+00
  0.0000000E+00
  0.0000000E+00
  0.0000000E+00
  0.0000000E+00
  0.0000000E+00
  0.0000000E+00
  0.0000000E+00
  0.0000000E+00
  0.0000000E+00
  0.0000000E+00
  0.0000000E+00
  0.0000000E+00
  0.0000000E+00
  0.0000000E+00
  0.0000000E+00
  0.0000000E+00
  0.0000000E+00
  0.0000000E+00
  0.0000000E+00
  0.0000000E+00
  0.0000000E+00
  0.0000000E+00
  0.0000000E+00
  0.0000000E+00
  0.0000000E+00
  0.0000000E+00
  0.0000000E+00
  0.0000000E+00
  0.0000000E+00
  0.0000000E+00
  0.0000000E+00
  0.0000000E+00
  0.0000000E+00
  0.0000000E+00
  0.0000000E+00
  0.0000000E+00
  0.0000000E+00
  0.0000000E+00
  0.0000000E+00
  0.0000000E+00
  0.0000000E+00
  0.0000000E+00
  0.0000000E+00
  0.0000000E+00
  0.0000000E+00
  0.0000000E+00
  0.0000000E+00
  0.0000000E+00
  0.0000000E+00
  0.0000000E+00
  0.0000000E+00
  0.0000000E+00
  0.0000000E+00
  0.0000000E+00
  0.0000000E+00
  0.0000000E+00
  0.0000000E+00
  0.0000000E+00
  0.0000000E+00
  0.0000000E+00
  0.0000000E+00
  0.0000000E+00
  0.0000000E+00
  0.0000000E+00
  0.0000000E+00
  0.0000000E+00
  0.0000000E+00
  0.0000000E+00
  0.0000000E+00
  0.0000000E+00
  0.0000000E+00
  0.0000000E+00
  0.0000000E+00
  0.0000000E+00
  0.0000000E+00
  0.0000000E+00
  0.0000000E+00
  0.0000000E+00
  0.0000000E+00
  0.0000000E+00
  0.0000000E+00
  0.0000000E+00
  0.0000000E+00
  0.0000000E+00
  0.0000000E+00
  0.0000000E+00
  0.0000000E+00
  0.0000000E+00
  0.0000000E+00
  0.0000000E+00
  0.0000000E+00
  0.0000000E+00
  0.0000000E+00
  0.0000000E+00
  0.0000000E+00
  0.0000000E+00
  0.0000000E+00
  0.0000000E+00
  0.0000000E+00
  0.0000000E+00
  0.0000000E+00
  0.0000000E+00
  0.0000000E+00
  0.0000000E+00
  0.0000000E+00
  0.0000000E+00
  0.0000000E+00
  0.0000000E+00
  0.0000000E+00
  0.0000000E+00
  0.0000000E+00
  0.0000000E+00
  0.0000000E+00
  0.0000000E+00
  0.0000000E+00
  0.0000000E+00
   303.7853    
   303.7853    
   303.7853    
  0.0000000E+00
  0.0000000E+00
  0.0000000E+00
  0.0000000E+00
   330.1780    
  0.0000000E+00
   438.2078    
  0.0000000E+00
  0.0000000E+00
  0.0000000E+00
  0.0000000E+00
  0.0000000E+00
  0.0000000E+00
   438.2078    
   438.2078    
  0.0000000E+00
  0.0000000E+00
   414.9580    
  0.0000000E+00
  0.0000000E+00
  0.0000000E+00
  0.0000000E+00
   542.8378    
   525.9597    
  0.0000000E+00
  0.0000000E+00
  0.0000000E+00
  0.0000000E+00
  0.0000000E+00
   525.9597    
  0.0000000E+00
   482.8316    
  0.0000000E+00
  0.0000000E+00
   248.4296    
   248.4296    
   202.9235    
   202.9235    
  0.0000000E+00
  0.0000000E+00
   528.2325    
  0.0000000E+00
  0.0000000E+00
   98.05750    
   366.0315    
  0.0000000E+00
  0.0000000E+00
  0.0000000E+00
   545.4761    
  0.0000000E+00
  0.0000000E+00
  0.0000000E+00
  0.0000000E+00
  0.0000000E+00
  0.0000000E+00
  0.0000000E+00
   318.4040    
   346.6690    
  0.0000000E+00
  0.0000000E+00
  0.0000000E+00
  0.0000000E+00
  0.0000000E+00
  0.0000000E+00
   88.89827    
   463.7874    
   669.5350    
   636.1037    
   636.1037    
   636.1037    
   41.31618    
   517.3914    
   517.3914    
   517.3914    
   102.4791    
   102.4791    
  0.0000000E+00
  0.0000000E+00
  0.0000000E+00
   210.4245    
   575.0042    
   31.88640    
   946.2129    
  0.0000000E+00
  0.0000000E+00
  0.0000000E+00
  0.0000000E+00
   549.7471    
  0.0000000E+00
  0.0000000E+00
   459.4079    
   93.39095    
  0.0000000E+00
   485.9317    
  0.0000000E+00
   582.2864    
  0.0000000E+00
   497.2868    
   81.52615    
   426.9365    
   1366.406    
   573.1795    
  0.0000000E+00
   1366.406    
   1366.406    
   1366.406    
  0.0000000E+00
   881.3179    
   881.3179    
   881.3179    
   1233.453    
  0.0000000E+00
   744.4861    
  0.0000000E+00
  0.0000000E+00
  0.0000000E+00
  0.0000000E+00
  0.0000000E+00
  0.0000000E+00
  0.0000000E+00
  0.0000000E+00
   522.0245    
  0.0000000E+00
  0.0000000E+00
  0.0000000E+00
  0.0000000E+00
  0.0000000E+00
   64.20678    
  0.0000000E+00
  0.0000000E+00
  0.0000000E+00
  0.0000000E+00
  0.0000000E+00
   409.0362    
   409.0362    
  0.0000000E+00
  0.0000000E+00
  0.0000000E+00
   789.0240    
   789.0240    
   789.0240    
  0.0000000E+00
  0.0000000E+00
  0.0000000E+00
   1254.375    
  0.0000000E+00
  0.0000000E+00
  0.0000000E+00
  0.0000000E+00
   1352.199    
  0.0000000E+00
  0.0000000E+00
  0.0000000E+00
  0.0000000E+00
   1364.688    
   1289.764    
  0.0000000E+00
  0.0000000E+00
  0.0000000E+00
   1447.050    
  0.0000000E+00
   1227.003    
  0.0000000E+00
  0.0000000E+00
  0.0000000E+00
  0.0000000E+00
  0.0000000E+00
   846.2889    
   831.2670    
   831.2670    
   831.2670    
  0.0000000E+00
   1097.844    
  0.0000000E+00
  0.0000000E+00
  0.0000000E+00
  0.0000000E+00
   1285.039    
   725.6445    
   725.6445    
   725.6445    
   210.6690    
   210.6690    
  0.0000000E+00
  0.0000000E+00
   341.7188    
   1065.647    
  0.0000000E+00
  0.0000000E+00
  0.0000000E+00
  0.0000000E+00
   689.9334    
   1972.366    
   1972.366    
  0.0000000E+00
   1251.480    
   1251.480    
   1251.480    
   1251.480    
   861.8748    
   369.4535    
   529.2783    
   1379.000    
   300.7426    
   285.5385    
   790.1387    
   790.1387    
   790.1387    
  0.0000000E+00
   329.9640    
   1565.433    
  0.0000000E+00
  0.0000000E+00
  0.0000000E+00
  0.0000000E+00
  0.0000000E+00
  0.0000000E+00
   573.7217    
   1623.046    
  0.0000000E+00
   1406.715    
  0.0000000E+00
   1053.547    
   426.4375    
   180.4838    
   1093.533    
   1093.533    
   1093.533    
   1002.732    
  0.0000000E+00
   288.6480    
   288.6480    
   1633.336    
   1530.371    
   1354.689    
   2016.646    
   1212.182    
   995.0157    
   1686.829    
   979.7188    
   979.7188    
   979.7188    
  0.0000000E+00
   1246.777    
   1388.123    
   480.5889    
   594.6661    
   1600.628    
   567.6495    
   900.9575    
   1324.603    
   356.4296    
   1541.943    
   652.2819    
   944.2714    
   1436.863    
   1449.270    
   1152.127    
   781.4471    
 
 month:           3 year:        2002
  0.0000000E+00
  0.0000000E+00
  0.0000000E+00
  0.0000000E+00
  0.0000000E+00
  0.0000000E+00
  0.0000000E+00
  0.0000000E+00
  0.0000000E+00
  0.0000000E+00
  0.0000000E+00
  0.0000000E+00
  0.0000000E+00
  0.0000000E+00
  0.0000000E+00
  0.0000000E+00
  0.0000000E+00
  0.0000000E+00
  0.0000000E+00
  0.0000000E+00
  0.0000000E+00
  0.0000000E+00
  0.0000000E+00
  0.0000000E+00
  0.0000000E+00
  0.0000000E+00
  0.0000000E+00
  0.0000000E+00
  0.0000000E+00
  0.0000000E+00
  0.0000000E+00
  0.0000000E+00
  0.0000000E+00
  0.0000000E+00
  0.0000000E+00
  0.0000000E+00
  0.0000000E+00
  0.0000000E+00
  0.0000000E+00
  0.0000000E+00
  0.0000000E+00
  0.0000000E+00
  0.0000000E+00
  0.0000000E+00
  0.0000000E+00
  0.0000000E+00
  0.0000000E+00
  0.0000000E+00
  0.0000000E+00
  0.0000000E+00
  0.0000000E+00
  0.0000000E+00
  0.0000000E+00
  0.0000000E+00
  0.0000000E+00
  0.0000000E+00
  0.0000000E+00
  0.0000000E+00
  0.0000000E+00
  0.0000000E+00
  0.0000000E+00
  0.0000000E+00
  0.0000000E+00
  0.0000000E+00
  0.0000000E+00
  0.0000000E+00
  0.0000000E+00
  0.0000000E+00
  0.0000000E+00
  0.0000000E+00
  0.0000000E+00
  0.0000000E+00
  0.0000000E+00
  0.0000000E+00
  0.0000000E+00
  0.0000000E+00
  0.0000000E+00
  0.0000000E+00
  0.0000000E+00
  0.0000000E+00
  0.0000000E+00
  0.0000000E+00
  0.0000000E+00
  0.0000000E+00
  0.0000000E+00
  0.0000000E+00
  0.0000000E+00
  0.0000000E+00
  0.0000000E+00
  0.0000000E+00
  0.0000000E+00
  0.0000000E+00
  0.0000000E+00
  0.0000000E+00
  0.0000000E+00
  0.0000000E+00
  0.0000000E+00
  0.0000000E+00
  0.0000000E+00
  0.0000000E+00
  0.0000000E+00
  0.0000000E+00
  0.0000000E+00
  0.0000000E+00
  0.0000000E+00
  0.0000000E+00
  0.0000000E+00
  0.0000000E+00
  0.0000000E+00
  0.0000000E+00
  0.0000000E+00
  0.0000000E+00
  0.0000000E+00
  0.0000000E+00
  0.0000000E+00
  0.0000000E+00
  0.0000000E+00
  0.0000000E+00
  0.0000000E+00
  0.0000000E+00
  0.0000000E+00
  0.0000000E+00
  0.0000000E+00
  0.0000000E+00
  0.0000000E+00
  0.0000000E+00
  0.0000000E+00
  0.0000000E+00
  0.0000000E+00
  0.0000000E+00
  0.0000000E+00
  0.0000000E+00
  0.0000000E+00
  0.0000000E+00
  0.0000000E+00
  0.0000000E+00
  0.0000000E+00
  0.0000000E+00
  0.0000000E+00
  0.0000000E+00
  0.0000000E+00
  0.0000000E+00
  0.0000000E+00
  0.0000000E+00
  0.0000000E+00
  0.0000000E+00
  0.0000000E+00
  0.0000000E+00
  0.0000000E+00
  0.0000000E+00
  0.0000000E+00
  0.0000000E+00
  0.0000000E+00
  0.0000000E+00
  0.0000000E+00
  0.0000000E+00
  0.0000000E+00
  0.0000000E+00
  0.0000000E+00
  0.0000000E+00
  0.0000000E+00
  0.0000000E+00
  0.0000000E+00
  0.0000000E+00
  0.0000000E+00
  0.0000000E+00
  0.0000000E+00
  0.0000000E+00
  0.0000000E+00
  0.0000000E+00
  0.0000000E+00
  0.0000000E+00
  0.0000000E+00
  0.0000000E+00
  0.0000000E+00
  0.0000000E+00
  0.0000000E+00
  0.0000000E+00
  0.0000000E+00
  0.0000000E+00
  0.0000000E+00
  0.0000000E+00
  0.0000000E+00
  0.0000000E+00
  0.0000000E+00
  0.0000000E+00
  0.0000000E+00
  0.0000000E+00
  0.0000000E+00
  0.0000000E+00
  0.0000000E+00
   412.4766    
   412.4766    
   412.4766    
  0.0000000E+00
  0.0000000E+00
  0.0000000E+00
   720.6479    
  0.0000000E+00
  0.0000000E+00
  0.0000000E+00
  0.0000000E+00
  0.0000000E+00
   180.8021    
  0.0000000E+00
  0.0000000E+00
  0.0000000E+00
   906.3719    
  0.0000000E+00
   772.1062    
  0.0000000E+00
   826.7325    
  0.0000000E+00
  0.0000000E+00
   829.7661    
  0.0000000E+00
  0.0000000E+00
   913.1784    
  0.0000000E+00
  0.0000000E+00
  0.0000000E+00
  0.0000000E+00
  0.0000000E+00
  0.0000000E+00
  0.0000000E+00
  0.0000000E+00
  0.0000000E+00
  0.0000000E+00
   395.0543    
   395.0543    
   395.0543    
  0.0000000E+00
  0.0000000E+00
  0.0000000E+00
  0.0000000E+00
  0.0000000E+00
  0.0000000E+00
  0.0000000E+00
  0.0000000E+00
  0.0000000E+00
   753.6241    
  0.0000000E+00
  0.0000000E+00
  0.0000000E+00
  0.0000000E+00
  0.0000000E+00
  0.0000000E+00
  0.0000000E+00
  0.0000000E+00
  0.0000000E+00
  0.0000000E+00
   784.3550    
  0.0000000E+00
   909.3257    
   30.16483    
  0.0000000E+00
  0.0000000E+00
  0.0000000E+00
  0.0000000E+00
  0.0000000E+00
  0.0000000E+00
  0.0000000E+00
   784.3550    
   784.3550    
   30.16483    
   30.16483    
  0.0000000E+00
  0.0000000E+00
  0.0000000E+00
  0.0000000E+00
  0.0000000E+00
  0.0000000E+00
  0.0000000E+00
   22.90437    
   1098.352    
  0.0000000E+00
  0.0000000E+00
  0.0000000E+00
  0.0000000E+00
  0.0000000E+00
   66.15326    
   892.3715    
  0.0000000E+00
  0.0000000E+00
  0.0000000E+00
  0.0000000E+00
   189.7430    
   189.7430    
   189.7430    
   969.6578    
  0.0000000E+00
  -73.97754    
  0.0000000E+00
  0.0000000E+00
   1012.683    
  0.0000000E+00
  0.0000000E+00
   885.0819    
  0.0000000E+00
  0.0000000E+00
  0.0000000E+00
   694.6288    
  0.0000000E+00
  0.0000000E+00
  0.0000000E+00
  0.0000000E+00
   961.6664    
  0.0000000E+00
  0.0000000E+00
  0.0000000E+00
  0.0000000E+00
  0.0000000E+00
  0.0000000E+00
   523.7540    
   523.7540    
   232.8709    
   232.8709    
   232.8709    
   232.8709    
   232.8709    
  0.0000000E+00
  0.0000000E+00
  0.0000000E+00
  0.0000000E+00
  0.0000000E+00
   977.4888    
   977.4888    
   977.4888    
   442.5304    
  0.0000000E+00
  0.0000000E+00
  0.0000000E+00
  0.0000000E+00
   54.93854    
   3519.942    
  0.0000000E+00
  0.0000000E+00
   3303.044    
  0.0000000E+00
  0.0000000E+00
  0.0000000E+00
   421.1983    
   2819.404    
  0.0000000E+00
  0.0000000E+00
   3276.388    
  0.0000000E+00
  0.0000000E+00
  0.0000000E+00
   2761.468    
  0.0000000E+00
  0.0000000E+00
  0.0000000E+00
  0.0000000E+00
  0.0000000E+00
  0.0000000E+00
  0.0000000E+00
  0.0000000E+00
  0.0000000E+00
  0.0000000E+00
   2374.308    
  0.0000000E+00
  0.0000000E+00
  0.0000000E+00
  0.0000000E+00
  0.0000000E+00
  0.0000000E+00
  0.0000000E+00
   2589.821    
  0.0000000E+00
  0.0000000E+00
  0.0000000E+00
  0.0000000E+00
  0.0000000E+00
   2589.821    
  0.0000000E+00
  0.0000000E+00
  0.0000000E+00
  0.0000000E+00
  0.0000000E+00
  0.0000000E+00
   164.9283    
   3411.955    
  0.0000000E+00
  0.0000000E+00
  0.0000000E+00
  0.0000000E+00
  0.0000000E+00
  0.0000000E+00
  0.0000000E+00
  0.0000000E+00
  0.0000000E+00
  0.0000000E+00
  0.0000000E+00
  0.0000000E+00
   714.6897    
   3336.837    
  0.0000000E+00
  0.0000000E+00
  0.0000000E+00
  0.0000000E+00
  0.0000000E+00
   232.1752    
   3809.509    
  0.0000000E+00
  0.0000000E+00
  0.0000000E+00
  0.0000000E+00
  0.0000000E+00
   22.81962    
   22.81962    
   22.81962    
   1770.894    
   1770.894    
   1770.894    
  0.0000000E+00
  0.0000000E+00
  0.0000000E+00
  0.0000000E+00
   348.3549    
   4873.110    
   8368.336    
  0.0000000E+00
   57.10875    
   293.7797    
   290.8814    
   277.8312    
   9343.819    
   9343.819    
   9343.819    
  0.0000000E+00
   8251.177    
  0.0000000E+00
  0.0000000E+00
  0.0000000E+00
  0.0000000E+00
  0.0000000E+00
   9013.691    
  0.0000000E+00
   10195.91    
  0.0000000E+00
  0.0000000E+00
  0.0000000E+00
   8700.358    
   868.7160    
   868.7160    
   868.7160    
  0.0000000E+00
  0.0000000E+00
  0.0000000E+00
   11432.23    
   928.6019    
  0.0000000E+00
   1232.427    
  0.0000000E+00
  0.0000000E+00
  0.0000000E+00
  0.0000000E+00
   1374.528    
   8167.304    
   1232.427    
   1232.427    
  0.0000000E+00
   9588.177    
   1167.040    
  0.0000000E+00
  0.0000000E+00
   5180.064    
   14686.08    
   1530.411    
   1482.827    
   3140.677    
   3140.677    
   3140.677    
   8607.316    
   3890.968    
   1482.827    
   7712.092    
   1361.237    
   7737.949    
  0.0000000E+00
   700.3923    
   700.3923    
   572.0978    
   572.0978    
   8105.754    
  0.0000000E+00
   1489.234    
   5455.409    
   5443.233    
   276.4513    
   1031.945    
  0.0000000E+00
   1704.274    
   9355.521    
   1537.849    
  0.0000000E+00
  0.0000000E+00
  0.0000000E+00
  0.0000000E+00
   1491.425    
  0.0000000E+00
  0.0000000E+00
   897.6693    
   977.3563    
  0.0000000E+00
  0.0000000E+00
   5883.315    
   5883.315    
   5883.315    
  0.0000000E+00
   252.5508    
   1317.572    
   1902.079    
   1324.468    
   1324.468    
   1324.468    
   116.4818    
   1458.670    
   1458.670    
   1458.670    
   281.5204    
   281.5204    
  0.0000000E+00
  0.0000000E+00
   7138.079    
   597.7941    
   1633.528    
   55.85551    
   1667.234    
  0.0000000E+00
  0.0000000E+00
  0.0000000E+00
   7526.186    
   1561.775    
   3543.607    
   5622.649    
   1305.130    
   265.3141    
   7305.357    
   1380.482    
   6950.589    
   1654.216    
   7030.886    
   1412.740    
   231.6074    
   7291.987    
   7014.353    
   1628.344    
   2846.836    
   7014.353    
   7014.353    
   7014.353    
  0.0000000E+00
   5174.820    
   5174.820    
   5174.820    
   5718.420    
  0.0000000E+00
   3503.339    
  0.0000000E+00
  0.0000000E+00
  0.0000000E+00
  0.0000000E+00
  0.0000000E+00
  0.0000000E+00
  0.0000000E+00
  0.0000000E+00
   2456.499    
  0.0000000E+00
  0.0000000E+00
  0.0000000E+00
  0.0000000E+00
  0.0000000E+00
   302.1387    
  0.0000000E+00
  0.0000000E+00
  0.0000000E+00
  0.0000000E+00
  0.0000000E+00
   1924.318    
   1924.318    
  0.0000000E+00
  0.0000000E+00
  0.0000000E+00
   3615.579    
   3615.579    
   3615.579    
  0.0000000E+00
  0.0000000E+00
  0.0000000E+00
   5730.942    
  0.0000000E+00
  0.0000000E+00
  0.0000000E+00
  0.0000000E+00
   6177.871    
   21.90364    
   267.8770    
   267.8770    
   267.8770    
   6234.933    
   5892.624    
   8.902494    
   305.4038    
   305.4038    
   6611.224    
   343.2850    
   5605.882    
  0.0000000E+00
  0.0000000E+00
  0.0000000E+00
  0.0000000E+00
  0.0000000E+00
   3636.119    
   4762.702    
   4762.702    
   4762.702    
  0.0000000E+00
   4987.868    
  0.0000000E+00
  0.0000000E+00
  0.0000000E+00
  0.0000000E+00
   5521.234    
   3209.807    
   3209.807    
   3209.807    
   981.0629    
   981.0629    
  0.0000000E+00
  0.0000000E+00
   1468.212    
   4578.602    
  0.0000000E+00
  0.0000000E+00
  0.0000000E+00
  0.0000000E+00
   2964.331    
   8474.363    
   8474.363    
  0.0000000E+00
   5323.939    
   5323.939    
   5323.939    
   5323.939    
   3703.085    
   1587.375    
   2193.195    
   5714.229    
   1246.201    
   1109.027    
   3172.141    
   3172.141    
   3172.141    
  0.0000000E+00
   1281.575    
   6080.119    
  0.0000000E+00
  0.0000000E+00
  0.0000000E+00
  0.0000000E+00
  0.0000000E+00
  0.0000000E+00
   2228.326    
   6303.885    
  0.0000000E+00
   5463.656    
  0.0000000E+00
   4091.959    
   1656.276    
   681.7935    
   4130.063    
   4130.063    
   4130.063    
   3894.597    
  0.0000000E+00
   1136.460    
   1136.460    
   6403.012    
   5781.117    
   5333.658    
   7939.902    
   4772.582    
   3628.683    
   6151.630    
   3844.703    
   3844.703    
   3844.703    
  0.0000000E+00
   4546.823    
   5062.288    
   1752.640    
   2168.664    
   5837.262    
   2070.138    
   3285.665    
   4830.640    
   1299.848    
   5623.249    
   2378.780    
   3443.624    
   5240.038    
   5285.281    
   4201.647    
   2849.827    
 
 month:           4 year:        2002
  0.0000000E+00
  0.0000000E+00
  0.0000000E+00
  0.0000000E+00
  0.0000000E+00
  0.0000000E+00
  0.0000000E+00
  0.0000000E+00
  0.0000000E+00
  0.0000000E+00
  0.0000000E+00
  0.0000000E+00
  0.0000000E+00
  0.0000000E+00
  0.0000000E+00
  0.0000000E+00
  0.0000000E+00
  0.0000000E+00
  0.0000000E+00
  0.0000000E+00
  0.0000000E+00
  0.0000000E+00
  0.0000000E+00
  0.0000000E+00
  0.0000000E+00
  0.0000000E+00
  0.0000000E+00
  0.0000000E+00
  0.0000000E+00
  0.0000000E+00
  0.0000000E+00
  0.0000000E+00
  0.0000000E+00
  0.0000000E+00
  0.0000000E+00
  0.0000000E+00
  0.0000000E+00
  0.0000000E+00
  0.0000000E+00
  0.0000000E+00
  0.0000000E+00
  0.0000000E+00
  0.0000000E+00
  0.0000000E+00
  0.0000000E+00
  0.0000000E+00
  0.0000000E+00
  0.0000000E+00
  0.0000000E+00
  0.0000000E+00
  0.0000000E+00
  0.0000000E+00
  0.0000000E+00
  0.0000000E+00
   167.2085    
   167.2085    
  0.0000000E+00
  0.0000000E+00
  0.0000000E+00
   3337.683    
   3337.683    
   3337.683    
   121.3111    
   121.3111    
   121.3111    
  0.0000000E+00
   6893.392    
   5537.509    
   5761.093    
   5822.091    
   5456.199    
   5415.514    
  0.0000000E+00
   5374.886    
  0.0000000E+00
  0.0000000E+00
   5969.310    
  0.0000000E+00
  0.0000000E+00
   3305.156    
   3305.156    
   3305.156    
  0.0000000E+00
  0.0000000E+00
  0.0000000E+00
  0.0000000E+00
   5745.641    
  0.0000000E+00
  0.0000000E+00
  0.0000000E+00
  0.0000000E+00
  0.0000000E+00
  0.0000000E+00
  0.0000000E+00
   5993.266    
  0.0000000E+00
  0.0000000E+00
  0.0000000E+00
  0.0000000E+00
  0.0000000E+00
  0.0000000E+00
  0.0000000E+00
   498.7056    
  0.0000000E+00
  0.0000000E+00
  0.0000000E+00
  0.0000000E+00
  0.0000000E+00
  0.0000000E+00
  0.0000000E+00
   2190.773    
  0.0000000E+00
  0.0000000E+00
  0.0000000E+00
  0.0000000E+00
  0.0000000E+00
  0.0000000E+00
  0.0000000E+00
   4128.087    
   4466.696    
  0.0000000E+00
  0.0000000E+00
  0.0000000E+00
  0.0000000E+00
  0.0000000E+00
  0.0000000E+00
  0.0000000E+00
  0.0000000E+00
   2691.187    
   4065.473    
  0.0000000E+00
  0.0000000E+00
  0.0000000E+00
  0.0000000E+00
  0.0000000E+00
  0.0000000E+00
   6270.956    
   3099.417    
   3099.417    
   3099.417    
  0.0000000E+00
  0.0000000E+00
  0.0000000E+00
  0.0000000E+00
  0.0000000E+00
  0.0000000E+00
  0.0000000E+00
  0.0000000E+00
  0.0000000E+00
  0.0000000E+00
   4458.482    
   1802.863    
   9519.223    
   3685.559    
   3685.559    
   3685.559    
  0.0000000E+00
  0.0000000E+00
  0.0000000E+00
   5344.102    
   10640.80    
   7229.269    
   3600.413    
   3600.413    
   3600.413    
   2488.303    
   9628.799    
  0.0000000E+00
   7019.210    
   4256.305    
   1414.147    
   551.8846    
   5418.172    
   5441.862    
   5813.324    
   1111.602    
   1111.602    
  0.0000000E+00
  0.0000000E+00
   11622.16    
   2348.062    
   6146.706    
   6146.706    
   4806.178    
   4806.178    
   5694.120    
   1414.147    
   551.8846    
  0.0000000E+00
   9895.169    
  0.0000000E+00
   6776.452    
   6776.452    
   6776.452    
   1064.317    
   4403.850    
   11337.74    
   8385.845    
  0.0000000E+00
  0.0000000E+00
   4495.025    
   4495.025    
   6424.037    
   2103.910    
  0.0000000E+00
   8185.807    
  0.0000000E+00
   10547.03    
   10310.85    
   8984.641    
   9545.575    
   9620.301    
   9754.256    
  0.0000000E+00
   9655.600    
   10528.04    
  0.0000000E+00
   9708.056    
  0.0000000E+00
  0.0000000E+00
  0.0000000E+00
   3397.729    
   3397.729    
   18966.88    
   18966.88    
   18966.88    
  0.0000000E+00
  0.0000000E+00
   4593.817    
   4593.817    
   4593.817    
  0.0000000E+00
  0.0000000E+00
  0.0000000E+00
  0.0000000E+00
   1527.075    
   19744.92    
  0.0000000E+00
  0.0000000E+00
  0.0000000E+00
   8744.106    
  0.0000000E+00
  0.0000000E+00
  0.0000000E+00
  0.0000000E+00
  0.0000000E+00
  0.0000000E+00
  0.0000000E+00
   16053.79    
   11645.83    
  0.0000000E+00
   5314.628    
  0.0000000E+00
   10550.67    
   349.9948    
  0.0000000E+00
  0.0000000E+00
   14198.13    
   16737.57    
   16737.57    
   16737.57    
  0.0000000E+00
   5314.628    
   5314.628    
   349.9948    
   349.9948    
  0.0000000E+00
  0.0000000E+00
  0.0000000E+00
   24093.54    
   24093.54    
  0.0000000E+00
  0.0000000E+00
   265.4051    
   12743.89    
  0.0000000E+00
  0.0000000E+00
  0.0000000E+00
  0.0000000E+00
   37642.78    
   766.8026    
   10353.96    
  -97.36178    
   31637.33    
   31637.33    
  0.0000000E+00
   2204.192    
   2204.192    
   2204.192    
   11250.69    
  0.0000000E+00
  -73.97754    
   5595.973    
   26147.80    
   14138.45    
  0.0000000E+00
   27406.00    
   12402.08    
  0.0000000E+00
  0.0000000E+00
   26316.62    
   9733.386    
  0.0000000E+00
  0.0000000E+00
   29937.75    
  0.0000000E+00
   13473.93    
  0.0000000E+00
  0.0000000E+00
  0.0000000E+00
   3110.375    
   31613.95    
   31613.95    
   7352.393    
   7352.393    
   3264.025    
   3264.025    
   3264.025    
   3264.025    
   3264.025    
  0.0000000E+00
  0.0000000E+00
  0.0000000E+00
  0.0000000E+00
   5691.276    
   17544.96    
   17544.96    
   17544.96    
   6227.089    
  0.0000000E+00
  0.0000000E+00
  0.0000000E+00
  0.0000000E+00
   585.2247    
   41673.23    
  0.0000000E+00
  0.0000000E+00
   35185.18    
  0.0000000E+00
  0.0000000E+00
  0.0000000E+00
   4486.752    
   30015.30    
  0.0000000E+00
  0.0000000E+00
   34901.24    
  0.0000000E+00
  0.0000000E+00
  0.0000000E+00
   29416.13    
  0.0000000E+00
  0.0000000E+00
  0.0000000E+00
  0.0000000E+00
  0.0000000E+00
  0.0000000E+00
  0.0000000E+00
  0.0000000E+00
  0.0000000E+00
  0.0000000E+00
   25291.97    
  0.0000000E+00
  0.0000000E+00
  0.0000000E+00
  0.0000000E+00
  0.0000000E+00
  0.0000000E+00
  0.0000000E+00
   27587.68    
  0.0000000E+00
  0.0000000E+00
  0.0000000E+00
  0.0000000E+00
  0.0000000E+00
   27587.68    
  0.0000000E+00
  0.0000000E+00
  0.0000000E+00
  0.0000000E+00
  0.0000000E+00
  0.0000000E+00
   1755.822    
   27554.57    
  0.0000000E+00
  0.0000000E+00
  0.0000000E+00
  0.0000000E+00
  0.0000000E+00
  0.0000000E+00
  0.0000000E+00
  0.0000000E+00
  0.0000000E+00
  0.0000000E+00
  0.0000000E+00
  0.0000000E+00
   7608.567    
   19512.79    
  0.0000000E+00
  0.0000000E+00
  0.0000000E+00
  0.0000000E+00
  0.0000000E+00
   2474.531    
   13272.41    
  0.0000000E+00
  0.0000000E+00
  0.0000000E+00
  0.0000000E+00
  0.0000000E+00
   52.65499    
   52.65499    
   52.65499    
   17525.42    
   17525.42    
   17525.42    
  0.0000000E+00
  0.0000000E+00
  0.0000000E+00
  0.0000000E+00
   833.5721    
   14726.88    
   24501.63    
  0.0000000E+00
   136.6545    
   702.9800    
   696.0447    
   664.8171    
   28430.54    
   28430.54    
   28430.54    
  0.0000000E+00
   25352.54    
  0.0000000E+00
  0.0000000E+00
  0.0000000E+00
  0.0000000E+00
  0.0000000E+00
   27709.68    
  0.0000000E+00
   31344.02    
  0.0000000E+00
  0.0000000E+00
  0.0000000E+00
   26746.45    
   862.9105    
   862.9105    
   862.9105    
  0.0000000E+00
  0.0000000E+00
  0.0000000E+00
   35144.70    
   926.1678    
  0.0000000E+00
   1229.197    
  0.0000000E+00
  0.0000000E+00
  0.0000000E+00
  0.0000000E+00
   4229.345    
   25501.12    
   1229.197    
   1229.197    
  0.0000000E+00
   29937.57    
   1163.981    
  0.0000000E+00
  0.0000000E+00
   16173.94    
   45854.98    
   1520.770    
   1473.485    
   9857.797    
   9857.797    
   9857.797    
   26874.99    
   12148.93    
   1473.485    
   24838.68    
   1352.661    
   24921.96    
  0.0000000E+00
   695.9800    
   695.9800    
   568.4937    
   568.4937    
   26106.56    
  0.0000000E+00
   1479.852    
   17570.48    
   17531.26    
   274.7097    
   1025.443    
  0.0000000E+00
   5489.033    
   30131.74    
   1528.160    
  0.0000000E+00
  0.0000000E+00
  0.0000000E+00
  0.0000000E+00
   4803.500    
  0.0000000E+00
  0.0000000E+00
   892.0139    
   971.1992    
  0.0000000E+00
  0.0000000E+00
   18997.28    
   18997.28    
   18997.28    
  0.0000000E+00
   161.5739    
   842.9401    
   1216.889    
   902.4725    
   902.4725    
   902.4725    
   115.7480    
   1449.480    
   1449.480    
   1449.480    
   280.9974    
   280.9974    
  0.0000000E+00
  0.0000000E+00
   24364.77    
   382.4494    
   1045.078    
   39.73822    
   1194.097    
  0.0000000E+00
  0.0000000E+00
  0.0000000E+00
   25689.52    
   999.1733    
   12095.58    
   19192.07    
   834.9801    
   169.7394    
   24935.75    
   883.1879    
   23724.80    
   1058.314    
   23998.88    
   903.8256    
   148.1750    
   21523.59    
   13130.96    
   1041.762    
   9717.248    
   13130.96    
   13130.96    
   13130.96    
  0.0000000E+00
   17800.01    
   17800.01    
   17800.01    
   25861.39    
  0.0000000E+00
   15951.59    
  0.0000000E+00
  0.0000000E+00
  0.0000000E+00
  0.0000000E+00
  0.0000000E+00
  0.0000000E+00
  0.0000000E+00
  0.0000000E+00
   11185.06    
  0.0000000E+00
  0.0000000E+00
  0.0000000E+00
  0.0000000E+00
  0.0000000E+00
   1375.714    
  0.0000000E+00
  0.0000000E+00
  0.0000000E+00
  0.0000000E+00
  0.0000000E+00
   8766.465    
   8766.465    
  0.0000000E+00
  0.0000000E+00
  0.0000000E+00
   16429.70    
   16429.70    
   16429.70    
  0.0000000E+00
  0.0000000E+00
  0.0000000E+00
   26045.53    
  0.0000000E+00
  0.0000000E+00
  0.0000000E+00
  0.0000000E+00
   28076.70    
   53.81091    
   654.1415    
   654.1415    
   654.1415    
   28336.03    
   26780.33    
   21.73943    
   745.7804    
   745.7804    
   30046.18    
   838.2844    
   25477.18    
  0.0000000E+00
  0.0000000E+00
  0.0000000E+00
  0.0000000E+00
  0.0000000E+00
   16476.89    
   19188.86    
   19188.86    
   19188.86    
  0.0000000E+00
   22650.76    
  0.0000000E+00
  0.0000000E+00
  0.0000000E+00
  0.0000000E+00
   25019.20    
   14601.78    
   14601.78    
   14601.78    
   4473.206    
   4473.206    
  0.0000000E+00
  0.0000000E+00
   6653.127    
   20747.71    
  0.0000000E+00
  0.0000000E+00
  0.0000000E+00
  0.0000000E+00
   13432.71    
   38401.15    
   38401.15    
  0.0000000E+00
   23984.14    
   23984.14    
   23984.14    
   23984.14    
   16780.34    
   7193.109    
   9981.073    
   26005.05    
   5671.370    
   5017.964    
   14402.88    
   14402.88    
   14402.88    
  0.0000000E+00
   5798.685    
   27510.44    
  0.0000000E+00
  0.0000000E+00
  0.0000000E+00
  0.0000000E+00
  0.0000000E+00
  0.0000000E+00
   10082.41    
   28522.89    
  0.0000000E+00
   24721.15    
  0.0000000E+00
   18514.70    
   7494.078    
   3073.923    
   18609.76    
   18609.76    
   18609.76    
   17621.71    
  0.0000000E+00
   5156.336    
   5156.336    
   29042.82    
   26064.65    
   24199.82    
   36024.85    
   21654.12    
   16302.55    
   27637.38    
   17446.33    
   17446.33    
   17446.33    
  0.0000000E+00
   20427.46    
   22743.29    
   7874.071    
   9743.137    
   26225.01    
   9300.490    
   14761.48    
   21702.57    
   5839.817    
   25263.52    
   10687.12    
   15471.14    
   23541.88    
   23745.14    
   18876.70    
   12803.39    
 
 month:           5 year:        2002
  0.0000000E+00
  0.0000000E+00
  0.0000000E+00
  0.0000000E+00
  0.0000000E+00
  0.0000000E+00
  0.0000000E+00
  0.0000000E+00
  0.0000000E+00
  0.0000000E+00
  0.0000000E+00
  0.0000000E+00
  0.0000000E+00
  0.0000000E+00
  0.0000000E+00
  0.0000000E+00
  0.0000000E+00
  0.0000000E+00
  0.0000000E+00
  0.0000000E+00
  0.0000000E+00
  0.0000000E+00
  0.0000000E+00
  0.0000000E+00
  0.0000000E+00
  0.0000000E+00
  0.0000000E+00
  0.0000000E+00
  0.0000000E+00
   1422.782    
   283.9352    
   283.9352    
   283.9352    
  0.0000000E+00
  0.0000000E+00
  0.0000000E+00
   506.2537    
   506.2537    
   506.2537    
   3907.155    
   2462.361    
   787.4349    
   594.0978    
   5985.580    
   5524.572    
   5279.177    
   4229.374    
  0.0000000E+00
  0.0000000E+00
  0.0000000E+00
  0.0000000E+00
   2606.282    
   4021.229    
  0.0000000E+00
   4361.184    
   4361.184    
   4886.153    
  0.0000000E+00
  0.0000000E+00
   8070.068    
   8070.068    
   8070.068    
   3194.624    
   3194.624    
   3194.624    
  0.0000000E+00
   11003.68    
   9707.137    
   10099.07    
   10206.00    
   9564.598    
   9493.277    
  0.0000000E+00
   9422.062    
  0.0000000E+00
  0.0000000E+00
   10464.07    
  0.0000000E+00
  0.0000000E+00
   6863.323    
   6863.323    
   6863.323    
  0.0000000E+00
  0.0000000E+00
  0.0000000E+00
  0.0000000E+00
   16373.01    
  0.0000000E+00
  0.0000000E+00
  0.0000000E+00
  0.0000000E+00
  0.0000000E+00
  0.0000000E+00
  0.0000000E+00
   17078.66    
  0.0000000E+00
  0.0000000E+00
  0.0000000E+00
  0.0000000E+00
  0.0000000E+00
  0.0000000E+00
  0.0000000E+00
   1421.132    
  0.0000000E+00
  0.0000000E+00
  0.0000000E+00
  0.0000000E+00
  0.0000000E+00
  0.0000000E+00
  0.0000000E+00
   6242.917    
  0.0000000E+00
  0.0000000E+00
  0.0000000E+00
  0.0000000E+00
  0.0000000E+00
  0.0000000E+00
  0.0000000E+00
   11763.57    
   12728.48    
  0.0000000E+00
  0.0000000E+00
  0.0000000E+00
  0.0000000E+00
  0.0000000E+00
  0.0000000E+00
  0.0000000E+00
  0.0000000E+00
   7668.917    
   11585.14    
  0.0000000E+00
  0.0000000E+00
  0.0000000E+00
  0.0000000E+00
  0.0000000E+00
  0.0000000E+00
   17869.97    
   422.9140    
   422.9140    
   422.9140    
  0.0000000E+00
  0.0000000E+00
  0.0000000E+00
  0.0000000E+00
  0.0000000E+00
  0.0000000E+00
  0.0000000E+00
  0.0000000E+00
  0.0000000E+00
  0.0000000E+00
   12705.07    
   5137.513    
   1298.710    
   1940.173    
   1940.173    
   1940.173    
  0.0000000E+00
  0.0000000E+00
  0.0000000E+00
   15228.77    
   1451.727    
   3798.248    
   10765.83    
   10765.83    
   10765.83    
   7090.772    
   1313.660    
  0.0000000E+00
   3687.881    
   14113.31    
   4689.115    
   1829.973    
   17965.90    
   18044.46    
   19276.18    
   3686.022    
   3686.022    
  0.0000000E+00
  0.0000000E+00
   1585.614    
   1233.668    
   4201.808    
   4201.808    
   6228.505    
   6228.505    
   15844.45    
   4689.115    
   1829.973    
  0.0000000E+00
   1350.000    
  0.0000000E+00
  -37.41877    
  -37.41877    
  -37.41877    
   3529.127    
   600.8185    
   1546.810    
   13488.93    
  0.0000000E+00
  0.0000000E+00
   613.2571    
   613.2571    
   876.4333    
   4898.260    
  0.0000000E+00
   1116.792    
  0.0000000E+00
   8004.630    
   1406.711    
   7812.127    
   1302.305    
   4855.920    
   1330.777    
  0.0000000E+00
   2345.295    
   1436.343    
  0.0000000E+00
  -73.08504    
  0.0000000E+00
  0.0000000E+00
  0.0000000E+00
   461.2248    
   461.2248    
   1994.455    
   1994.455    
   1994.455    
  0.0000000E+00
  0.0000000E+00
   138.1167    
   138.1167    
   138.1167    
  0.0000000E+00
  0.0000000E+00
  0.0000000E+00
  0.0000000E+00
   563.5160    
   7286.207    
  0.0000000E+00
  0.0000000E+00
  0.0000000E+00
   3701.731    
  0.0000000E+00
  0.0000000E+00
  0.0000000E+00
  0.0000000E+00
  0.0000000E+00
  0.0000000E+00
  0.0000000E+00
   5924.118    
   4297.506    
  0.0000000E+00
  -3.205811    
  0.0000000E+00
   350.3500    
   852.7915    
  0.0000000E+00
  0.0000000E+00
   5239.348    
   4332.591    
   4332.591    
   4332.591    
  0.0000000E+00
  -3.205811    
  -3.205811    
   852.7915    
   852.7915    
  0.0000000E+00
  0.0000000E+00
  0.0000000E+00
   7026.485    
   7026.485    
  0.0000000E+00
  0.0000000E+00
   646.9173    
   3657.628    
  0.0000000E+00
  0.0000000E+00
  0.0000000E+00
  0.0000000E+00
   10977.90    
   1868.973    
   5878.595    
  -107.6812    
  0.0000000E+00
  0.0000000E+00
  0.0000000E+00
   5371.548    
   5371.548    
   5371.548    
   4767.562    
  0.0000000E+00
  -73.97754    
   1631.973    
   7625.575    
   10141.11    
  -10.41326    
   7992.510    
   12428.53    
  0.0000000E+00
  -30.54539    
   7674.808    
   19614.88    
  0.0000000E+00
  -30.97222    
   9149.398    
  0.0000000E+00
   21089.51    
  0.0000000E+00
  0.0000000E+00
  0.0000000E+00
   989.0709    
   783.0569    
   783.0569    
   14620.20    
   14620.20    
   3771.832    
   3771.832    
   3771.832    
   3771.832    
   3771.832    
  0.0000000E+00
  0.0000000E+00
  0.0000000E+00
  0.0000000E+00
   1808.933    
  0.7366156    
  0.7366156    
  0.7366156    
   12697.92    
  0.0000000E+00
  0.0000000E+00
  0.0000000E+00
  0.0000000E+00
   790.8021    
   9987.296    
  0.0000000E+00
  0.0000000E+00
   23949.60    
  0.0000000E+00
  0.0000000E+00
  0.0000000E+00
   6062.858    
   28001.92    
  0.0000000E+00
  0.0000000E+00
   26970.71    
  0.0000000E+00
  0.0000000E+00
  0.0000000E+00
   28668.24    
  0.0000000E+00
  0.0000000E+00
  0.0000000E+00
  0.0000000E+00
  0.0000000E+00
  0.0000000E+00
  0.0000000E+00
  0.0000000E+00
  0.0000000E+00
  0.0000000E+00
   24483.38    
  0.0000000E+00
  0.0000000E+00
  0.0000000E+00
  0.0000000E+00
  0.0000000E+00
  0.0000000E+00
  0.0000000E+00
   14719.94    
  0.0000000E+00
  0.0000000E+00
  0.0000000E+00
  0.0000000E+00
  0.0000000E+00
   7337.235    
  0.0000000E+00
  0.0000000E+00
  0.0000000E+00
  0.0000000E+00
  0.0000000E+00
  0.0000000E+00
   2372.551    
  -42.46040    
  0.0000000E+00
  0.0000000E+00
  0.0000000E+00
  0.0000000E+00
  0.0000000E+00
  0.0000000E+00
  0.0000000E+00
  0.0000000E+00
  0.0000000E+00
  0.0000000E+00
  0.0000000E+00
  0.0000000E+00
   10281.06    
  -43.23212    
  0.0000000E+00
  0.0000000E+00
  0.0000000E+00
  0.0000000E+00
  0.0000000E+00
   3343.508    
  -34.41936    
  0.0000000E+00
  0.0000000E+00
  0.0000000E+00
  0.0000000E+00
  0.0000000E+00
   131.6006    
   131.6006    
   131.6006    
   12543.97    
   12543.97    
   12543.97    
  0.0000000E+00
  0.0000000E+00
  0.0000000E+00
  0.0000000E+00
   2026.734    
   20648.95    
   33906.55    
  0.0000000E+00
   332.2596    
   1709.214    
   1692.351    
   1616.425    
   14581.02    
   14581.02    
   14581.02    
  0.0000000E+00
   30313.09    
  0.0000000E+00
  0.0000000E+00
  0.0000000E+00
  0.0000000E+00
  0.0000000E+00
   33138.05    
  0.0000000E+00
   37484.37    
  0.0000000E+00
  0.0000000E+00
  0.0000000E+00
   31986.13    
   750.2708    
   750.2708    
   750.2708    
  0.0000000E+00
  0.0000000E+00
  0.0000000E+00
   42029.61    
   805.1761    
  0.0000000E+00
   1068.618    
  0.0000000E+00
  0.0000000E+00
  0.0000000E+00
  0.0000000E+00
   5062.272    
   31135.89    
   1068.618    
   1068.618    
  0.0000000E+00
   36552.63    
   1011.922    
  0.0000000E+00
  0.0000000E+00
   19747.76    
   55987.18    
   1319.787    
   1278.752    
   12074.95    
   12074.95    
   12074.95    
   32813.33    
   14833.39    
   1278.752    
   31041.99    
   1173.896    
   31146.07    
  0.0000000E+00
   604.0002    
   604.0002    
   493.3623    
   493.3623    
   32626.51    
  0.0000000E+00
   1284.277    
   21958.60    
   21909.59    
   238.4045    
   889.9223    
  0.0000000E+00
   6859.885    
   37656.96    
   1326.201    
  0.0000000E+00
  0.0000000E+00
  0.0000000E+00
  0.0000000E+00
   6003.145    
  0.0000000E+00
  0.0000000E+00
   774.1266    
   842.8470    
  0.0000000E+00
  0.0000000E+00
   23767.63    
   23767.63    
   23767.63    
  0.0000000E+00
   179.1575    
   934.6747    
   1349.319    
   842.9019    
   842.9019    
   842.9019    
   100.4509    
   1257.919    
   1257.919    
   1257.919    
   244.0425    
   244.0425    
  0.0000000E+00
  0.0000000E+00
   31163.73    
   424.0703    
   1158.812    
   32.67594    
   982.6143    
  0.0000000E+00
  0.0000000E+00
  0.0000000E+00
   32858.14    
   1107.911    
   15470.84    
   24547.61    
   925.8487    
   188.2117    
   31894.05    
   979.3026    
   30345.19    
   1173.487    
   30695.75    
   1002.186    
   164.3004    
   27400.76    
   16379.84    
   1155.134    
   12428.84    
   16379.84    
   16379.84    
   16379.84    
  0.0000000E+00
   24093.14    
   24093.14    
   24093.14    
   36258.07    
  0.0000000E+00
   22334.58    
  0.0000000E+00
  0.0000000E+00
  0.0000000E+00
  0.0000000E+00
  0.0000000E+00
  0.0000000E+00
  0.0000000E+00
  0.0000000E+00
   15660.74    
  0.0000000E+00
  0.0000000E+00
  0.0000000E+00
  0.0000000E+00
  0.0000000E+00
   1926.203    
  0.0000000E+00
  0.0000000E+00
  0.0000000E+00
  0.0000000E+00
  0.0000000E+00
   12273.20    
   12273.20    
  0.0000000E+00
  0.0000000E+00
  0.0000000E+00
   23118.14    
   23118.14    
   23118.14    
  0.0000000E+00
  0.0000000E+00
  0.0000000E+00
   36742.49    
  0.0000000E+00
  0.0000000E+00
  0.0000000E+00
  0.0000000E+00
   39607.85    
   42.87048    
   521.8173    
   521.8173    
   521.8173    
   39973.70    
   37779.07    
   17.34182    
   594.9182    
   594.9182    
   42386.20    
   668.7102    
   35940.70    
  0.0000000E+00
  0.0000000E+00
  0.0000000E+00
  0.0000000E+00
  0.0000000E+00
   23629.03    
   25610.12    
   25610.12    
   25610.12    
  0.0000000E+00
   31952.07    
  0.0000000E+00
  0.0000000E+00
  0.0000000E+00
  0.0000000E+00
   35879.30    
   20721.83    
   20721.83    
   20721.83    
   6307.099    
   6307.099    
  0.0000000E+00
  0.0000000E+00
   9541.057    
   29753.68    
  0.0000000E+00
  0.0000000E+00
  0.0000000E+00
  0.0000000E+00
   19263.46    
   2671.121    
   2671.121    
  0.0000000E+00
  -840.3616    
  -840.3616    
  -840.3616    
  -840.3616    
   24064.20    
   10315.43    
   14399.84    
   37517.87    
   8182.171    
   7260.143    
   20811.63    
   20811.63    
   20811.63    
  0.0000000E+00
   8389.713    
   39802.95    
  0.0000000E+00
  0.0000000E+00
  0.0000000E+00
  0.0000000E+00
  0.0000000E+00
  0.0000000E+00
   14587.54    
   41267.80    
  0.0000000E+00
   35767.33    
  0.0000000E+00
   26787.63    
   10842.66    
   4475.528    
   27061.83    
   27061.83    
   27061.83    
   25495.62    
  0.0000000E+00
   7497.826    
   7497.826    
   42233.82    
   37949.24    
   35188.96    
   52383.73    
   31487.25    
   23873.06    
   40471.51    
   25376.58    
   25376.58    
   25376.58    
  0.0000000E+00
   29913.49    
   33304.73    
   11530.60    
   14267.61    
   38403.27    
   13619.41    
   21616.36    
   31780.73    
   8551.688    
   36995.29    
   15649.97    
   22655.56    
   34474.15    
   34771.80    
   27642.59    
   18748.98    
 
 month:           6 year:        2002
  0.0000000E+00
  0.0000000E+00
  0.0000000E+00
  0.0000000E+00
  0.0000000E+00
  0.0000000E+00
  0.0000000E+00
  0.0000000E+00
  0.0000000E+00
  0.0000000E+00
  0.0000000E+00
  0.0000000E+00
  0.0000000E+00
  0.0000000E+00
  0.0000000E+00
  0.0000000E+00
  0.0000000E+00
  0.0000000E+00
  0.0000000E+00
  0.0000000E+00
  0.0000000E+00
  0.0000000E+00
  0.0000000E+00
  0.0000000E+00
  0.0000000E+00
  0.0000000E+00
  0.0000000E+00
  0.0000000E+00
  0.0000000E+00
   1895.418    
   377.3739    
   377.3739    
   377.3739    
  0.0000000E+00
  0.0000000E+00
  0.0000000E+00
   3020.007    
   3020.007    
   3020.007    
   23307.87    
   14689.04    
   430.7028    
   791.4517    
   7973.938    
   7359.786    
   7032.875    
   5634.333    
  0.0000000E+00
  0.0000000E+00
  0.0000000E+00
  0.0000000E+00
   15547.60    
   23988.35    
  0.0000000E+00
   4750.914    
   4750.914    
   6509.292    
  0.0000000E+00
  0.0000000E+00
   6146.469    
   6146.469    
   6146.469    
   3595.158    
   3595.158    
   3595.158    
  0.0000000E+00
   36865.68    
   39581.93    
   44257.81    
   43982.73    
   25951.07    
   27567.65    
  0.0000000E+00
   37164.87    
  0.0000000E+00
  0.0000000E+00
   43619.68    
  0.0000000E+00
  0.0000000E+00
   13814.38    
   13814.38    
   13814.38    
  0.0000000E+00
  0.0000000E+00
  0.0000000E+00
  0.0000000E+00
   45743.77    
  0.0000000E+00
  0.0000000E+00
  0.0000000E+00
  0.0000000E+00
  0.0000000E+00
  0.0000000E+00
  0.0000000E+00
   39736.89    
  0.0000000E+00
  0.0000000E+00
  0.0000000E+00
  0.0000000E+00
  0.0000000E+00
  0.0000000E+00
  0.0000000E+00
   4660.370    
  0.0000000E+00
  0.0000000E+00
  0.0000000E+00
  0.0000000E+00
  0.0000000E+00
  0.0000000E+00
  0.0000000E+00
   20472.62    
  0.0000000E+00
  0.0000000E+00
  0.0000000E+00
  0.0000000E+00
  0.0000000E+00
  0.0000000E+00
  0.0000000E+00
   38576.70    
   40276.85    
  0.0000000E+00
  0.0000000E+00
  0.0000000E+00
  0.0000000E+00
  0.0000000E+00
  0.0000000E+00
  0.0000000E+00
  0.0000000E+00
   25148.96    
   37991.57    
  0.0000000E+00
  0.0000000E+00
  0.0000000E+00
  0.0000000E+00
  0.0000000E+00
  0.0000000E+00
   42240.24    
   91.24406    
   91.24406    
   91.24406    
  0.0000000E+00
  0.0000000E+00
  0.0000000E+00
  0.0000000E+00
  0.0000000E+00
  0.0000000E+00
  0.0000000E+00
  0.0000000E+00
  0.0000000E+00
  0.0000000E+00
   41664.21    
   16847.63    
   279.6483    
   2016.446    
   2016.446    
   2016.446    
  0.0000000E+00
  0.0000000E+00
  0.0000000E+00
   34661.48    
   312.5968    
   3946.835    
   422.5628    
   422.5628    
   422.5628    
   23253.03    
   282.8672    
  0.0000000E+00
   3832.151    
   7731.610    
   5520.971    
   5011.894    
   5098.131    
   8127.042    
   10022.03    
   10092.81    
   10092.81    
  0.0000000E+00
  0.0000000E+00
   341.4267    
   1281.930    
   1248.115    
   1248.115    
  -14.03263    
  -14.03263    
  -136.1985    
   5520.971    
   5011.894    
  0.0000000E+00
   290.6924    
  0.0000000E+00
  -39.56527    
  -39.56527    
  -39.56527    
   9665.504    
   129.3728    
   333.0712    
  -57.71659    
  0.0000000E+00
  0.0000000E+00
   132.0513    
   132.0513    
   188.7202    
   12349.75    
  0.0000000E+00
   240.4761    
  0.0000000E+00
  -88.37190    
   302.9042    
  -45.70625    
   280.4224    
  -56.85671    
   286.5527    
  0.0000000E+00
  -85.95920    
   309.2842    
  0.0000000E+00
  -72.34138    
  0.0000000E+00
  0.0000000E+00
  0.0000000E+00
   96.15308    
   96.15308    
  0.0000000E+00
  0.0000000E+00
  0.0000000E+00
  0.0000000E+00
  0.0000000E+00
   2.623539    
   2.623539    
   2.623539    
  0.0000000E+00
  0.0000000E+00
  0.0000000E+00
  0.0000000E+00
   162.9364    
   2106.751    
  0.0000000E+00
  0.0000000E+00
  0.0000000E+00
  -43.72430    
  0.0000000E+00
  0.0000000E+00
  0.0000000E+00
  0.0000000E+00
  0.0000000E+00
  0.0000000E+00
  0.0000000E+00
   1712.913    
   1242.592    
  0.0000000E+00
  -4.416894    
  0.0000000E+00
  -29.10781    
   2029.662    
  0.0000000E+00
  0.0000000E+00
   1514.919    
  0.0000000E+00
  0.0000000E+00
  0.0000000E+00
  0.0000000E+00
  -4.416894    
  -4.416894    
   2029.662    
   2029.662    
  0.0000000E+00
  0.0000000E+00
  0.0000000E+00
   539.5165    
   539.5165    
  0.0000000E+00
  0.0000000E+00
   1540.217    
  -7.690942    
  0.0000000E+00
  0.0000000E+00
  0.0000000E+00
  0.0000000E+00
   842.9199    
   4449.386    
   1.785319    
  -107.6812    
  0.0000000E+00
  0.0000000E+00
  0.0000000E+00
   517.0326    
   517.0326    
   517.0326    
  -38.79883    
  0.0000000E+00
  -73.97754    
   125.3083    
   585.5168    
  -23.04932    
  -67.25232    
   613.6914    
  -22.07618    
  -13.44038    
  -36.82417    
   589.2972    
   4804.814    
  0.0000000E+00
  -79.07029    
   719.7067    
  0.0000000E+00
  -6.853255    
  0.0000000E+00
  0.0000000E+00
  0.0000000E+00
   80.46722    
   7.263062    
   7.263062    
  0.2578430    
  0.2578430    
  -3.993913    
  -3.993913    
  -3.993913    
  -3.993913    
  -3.993913    
  0.0000000E+00
  0.0000000E+00
  0.0000000E+00
  0.0000000E+00
   147.2178    
 -0.7611694    
 -0.7611694    
 -0.7611694    
   26719.43    
  0.0000000E+00
  0.0000000E+00
  0.0000000E+00
  0.0000000E+00
   931.0890    
  -2.005481    
  0.0000000E+00
  0.0000000E+00
  -13.96445    
  0.0000000E+00
  0.0000000E+00
  0.0000000E+00
   7138.398    
   17.86743    
  0.0000000E+00
  0.0000000E+00
  -9.811662    
  0.0000000E+00
  0.0000000E+00
  0.0000000E+00
  -16.53931    
  0.0000000E+00
  0.0000000E+00
  0.0000000E+00
  0.0000000E+00
  0.0000000E+00
  0.0000000E+00
  0.0000000E+00
  0.0000000E+00
  0.0000000E+00
  0.0000000E+00
  -33.45996    
  0.0000000E+00
  0.0000000E+00
  0.0000000E+00
  0.0000000E+00
  0.0000000E+00
  0.0000000E+00
  0.0000000E+00
  -11.86155    
  0.0000000E+00
  0.0000000E+00
  0.0000000E+00
  0.0000000E+00
  0.0000000E+00
  -37.86571    
  0.0000000E+00
  0.0000000E+00
  0.0000000E+00
  0.0000000E+00
  0.0000000E+00
  0.0000000E+00
   2793.300    
  -52.89131    
  0.0000000E+00
  0.0000000E+00
  0.0000000E+00
  0.0000000E+00
  0.0000000E+00
  0.0000000E+00
  0.0000000E+00
  0.0000000E+00
  0.0000000E+00
  0.0000000E+00
  0.0000000E+00
  0.0000000E+00
   2978.710    
  -55.25368    
  0.0000000E+00
  0.0000000E+00
  0.0000000E+00
  0.0000000E+00
  0.0000000E+00
   3936.806    
  -43.61951    
  0.0000000E+00
  0.0000000E+00
  0.0000000E+00
  0.0000000E+00
  0.0000000E+00
   61.81238    
   61.81238    
   61.81238    
  -3134.739    
  -3134.739    
  -3134.739    
  0.0000000E+00
  0.0000000E+00
  0.0000000E+00
  0.0000000E+00
   952.5585    
   23219.36    
   38099.75    
  0.0000000E+00
   156.1609    
   803.3249    
   795.4002    
   759.7148    
  -3661.208    
  -3661.208    
  -3661.208    
  0.0000000E+00
   39475.45    
  0.0000000E+00
  0.0000000E+00
  0.0000000E+00
  0.0000000E+00
  0.0000000E+00
   43150.07    
  0.0000000E+00
   48809.54    
  0.0000000E+00
  0.0000000E+00
  0.0000000E+00
   41650.11    
   944.7473    
   944.7473    
   944.7473    
  0.0000000E+00
  0.0000000E+00
  0.0000000E+00
   54728.02    
   1009.971    
  0.0000000E+00
   1340.419    
  0.0000000E+00
  0.0000000E+00
  0.0000000E+00
  0.0000000E+00
   6586.421    
   39788.82    
   1340.419    
   1340.419    
  0.0000000E+00
   46710.92    
   1269.301    
  0.0000000E+00
  0.0000000E+00
   25235.83    
   71546.48    
   1661.841    
   1610.170    
   15398.27    
   15398.27    
   15398.27    
   41932.44    
   18955.71    
   1610.170    
   39095.83    
   1478.139    
   39226.90    
  0.0000000E+00
   760.5411    
   760.5411    
   621.2289    
   621.2289    
   41091.46    
  0.0000000E+00
   1617.128    
   27655.75    
   27594.03    
   300.1925    
   1120.567    
  0.0000000E+00
   8639.682    
   47427.05    
   1669.917    
  0.0000000E+00
  0.0000000E+00
  0.0000000E+00
  0.0000000E+00
   7560.660    
  0.0000000E+00
  0.0000000E+00
   974.7598    
   1061.291    
  0.0000000E+00
  0.0000000E+00
   29917.51    
   29917.51    
   29917.51    
  0.0000000E+00
   223.6018    
   1166.543    
   1684.051    
   955.8126    
   955.8126    
   955.8126    
   126.4851    
   1583.938    
   1583.938    
   1583.938    
   307.4761    
   307.4761    
  0.0000000E+00
  0.0000000E+00
   38769.29    
   529.2711    
   1446.282    
   33.56304    
   1012.798    
  0.0000000E+00
  0.0000000E+00
  0.0000000E+00
   40877.23    
   1382.754    
   19246.52    
   30538.49    
   1155.527    
   234.9021    
   39677.85    
   1222.242    
   37750.98    
   1464.599    
   38187.10    
   1250.803    
   205.0591    
   34091.99    
   20392.58    
   1441.692    
   15462.12    
   20392.58    
   20392.58    
   20392.58    
  0.0000000E+00
   30092.10    
   30092.10    
   30092.10    
   45303.07    
  0.0000000E+00
   27882.96    
  0.0000000E+00
  0.0000000E+00
  0.0000000E+00
  0.0000000E+00
  0.0000000E+00
  0.0000000E+00
  0.0000000E+00
  0.0000000E+00
   19551.19    
  0.0000000E+00
  0.0000000E+00
  0.0000000E+00
  0.0000000E+00
  0.0000000E+00
   2404.712    
  0.0000000E+00
  0.0000000E+00
  0.0000000E+00
  0.0000000E+00
  0.0000000E+00
   15324.13    
   15324.13    
  0.0000000E+00
  0.0000000E+00
  0.0000000E+00
   28764.09    
   28764.09    
   28764.09    
  0.0000000E+00
  0.0000000E+00
  0.0000000E+00
   45631.40    
  0.0000000E+00
  0.0000000E+00
  0.0000000E+00
  0.0000000E+00
   49189.98    
   42.87048    
   521.8173    
   521.8173    
   521.8173    
   49644.32    
   46918.76    
   17.34183    
   594.9182    
   594.9182    
   52640.46    
   668.7101    
   44635.64    
  0.0000000E+00
  0.0000000E+00
  0.0000000E+00
  0.0000000E+00
  0.0000000E+00
   29073.73    
   17655.04    
   17655.04    
   17655.04    
  0.0000000E+00
   39684.57    
  0.0000000E+00
  0.0000000E+00
  0.0000000E+00
  0.0000000E+00
   44146.75    
   12068.68    
   12068.68    
   12068.68    
   7834.335    
   7834.335    
  0.0000000E+00
  0.0000000E+00
   11739.54    
   36609.64    
  0.0000000E+00
  0.0000000E+00
  0.0000000E+00
  0.0000000E+00
   23702.23    
  -1768.209    
  -1768.209    
  0.0000000E+00
  -879.4413    
  -879.4413    
  -879.4413    
  -879.4413    
   29609.17    
   12692.35    
   17594.63    
   45841.69    
   9997.489    
   8870.730    
   8033.080    
   8033.080    
   8033.080    
  0.0000000E+00
   10250.88    
   48632.80    
  0.0000000E+00
  0.0000000E+00
  0.0000000E+00
  0.0000000E+00
  0.0000000E+00
  0.0000000E+00
   17823.62    
   50422.62    
  0.0000000E+00
   43701.92    
  0.0000000E+00
   32730.19    
   13247.99    
   5453.986    
   32990.20    
   32990.20    
   32990.20    
   31151.56    
  0.0000000E+00
   9109.126    
   9109.126    
   51328.80    
   46245.88    
   42751.14    
   63641.12    
   38253.92    
   28986.39    
   49140.01    
   30829.82    
   30829.82    
   30829.82    
  0.0000000E+00
   36320.60    
   40438.20    
   14000.31    
   17323.56    
   46628.80    
   16536.53    
   26246.32    
   38587.77    
   10383.36    
   44919.24    
   19002.00    
   27508.11    
   18982.56    
   42219.51    
   33563.30    
   22764.78    
 
 month:           7 year:        2002
  0.0000000E+00
  0.0000000E+00
  0.0000000E+00
  0.0000000E+00
  0.0000000E+00
  0.0000000E+00
  0.0000000E+00
  0.0000000E+00
  0.0000000E+00
  0.0000000E+00
  0.0000000E+00
  0.0000000E+00
  0.0000000E+00
  0.0000000E+00
  0.0000000E+00
  0.0000000E+00
  0.0000000E+00
  0.0000000E+00
  0.0000000E+00
  0.0000000E+00
  0.0000000E+00
  0.0000000E+00
  0.0000000E+00
  0.0000000E+00
  0.0000000E+00
  0.0000000E+00
  0.0000000E+00
  0.0000000E+00
  0.0000000E+00
   4526.638    
   907.0792    
   907.0792    
   907.0792    
  0.0000000E+00
  0.0000000E+00
  0.0000000E+00
   3265.422    
   3265.422    
   3265.422    
   25207.25    
   15886.07    
   5053.939    
   1890.145    
   19043.36    
   17576.64    
   16795.90    
   13455.91    
  0.0000000E+00
  0.0000000E+00
  0.0000000E+00
  0.0000000E+00
   16814.59    
   25943.19    
  0.0000000E+00
   15198.39    
   15198.39    
   15545.48    
  0.0000000E+00
  0.0000000E+00
  -12.92006    
  -12.92006    
  -12.92006    
   8962.431    
   8962.431    
   8962.431    
  0.0000000E+00
  -12.03631    
   14.60185    
  0.9206921    
  -13.02616    
  0.0000000E+00
  0.4327322    
  0.0000000E+00
   12.88457    
  0.0000000E+00
  0.0000000E+00
  -13.83253    
  0.0000000E+00
  0.0000000E+00
   10.34107    
   10.34107    
   10.34107    
  0.0000000E+00
  0.0000000E+00
  0.0000000E+00
  0.0000000E+00
  -17.38470    
  0.0000000E+00
  0.0000000E+00
  0.0000000E+00
  0.0000000E+00
  0.0000000E+00
  0.0000000E+00
  0.0000000E+00
   5.264691    
  0.0000000E+00
  0.0000000E+00
  0.0000000E+00
  0.0000000E+00
  0.0000000E+00
  0.0000000E+00
  0.0000000E+00
   6828.891    
  0.0000000E+00
  0.0000000E+00
  0.0000000E+00
  0.0000000E+00
  0.0000000E+00
  0.0000000E+00
  0.0000000E+00
   27837.60    
  0.0000000E+00
  0.0000000E+00
  0.0000000E+00
  0.0000000E+00
  0.0000000E+00
  0.0000000E+00
  0.0000000E+00
   3389.742    
  -22.67027    
  0.0000000E+00
  0.0000000E+00
  0.0000000E+00
  0.0000000E+00
  0.0000000E+00
  0.0000000E+00
  0.0000000E+00
  0.0000000E+00
   11507.58    
   6187.787    
  0.0000000E+00
  0.0000000E+00
  0.0000000E+00
  0.0000000E+00
  0.0000000E+00
  0.0000000E+00
  -33.66381    
   3294.702    
   3294.702    
   3294.702    
  0.0000000E+00
  0.0000000E+00
  0.0000000E+00
  0.0000000E+00
  0.0000000E+00
  0.0000000E+00
  0.0000000E+00
  0.0000000E+00
  0.0000000E+00
  0.0000000E+00
   1785.047    
   24687.02    
   10114.84    
   1833.854    
   1833.854    
   1833.854    
  0.0000000E+00
  0.0000000E+00
  0.0000000E+00
  -15.64814    
   11306.60    
   7025.237    
   1.908666    
   1.908666    
   1.908666    
   16532.99    
   10231.27    
  0.0000000E+00
   6821.107    
  -98.98561    
   6.761965    
   5030.447    
  -74.19061    
  -26.61250    
  -27.16556    
   4715.611    
   4715.611    
  0.0000000E+00
  0.0000000E+00
   12349.36    
   2281.793    
  -19.91543    
  -19.91543    
  -17.75842    
  -17.75842    
  -138.6118    
   6.761965    
   5030.447    
  0.0000000E+00
   10514.31    
  0.0000000E+00
  -38.28897    
  -38.28897    
  -38.28897    
   5645.886    
   4679.400    
   12047.15    
  -61.31883    
  0.0000000E+00
  0.0000000E+00
   4776.280    
   4776.280    
   6825.990    
   2270.917    
  0.0000000E+00
   8697.995    
  0.0000000E+00
  -92.39342    
   10956.01    
  -49.43561    
   10142.84    
  -63.38050    
   10364.58    
  0.0000000E+00
  -86.68153    
   11186.78    
  0.0000000E+00
  -73.85438    
  0.0000000E+00
  0.0000000E+00
  0.0000000E+00
   3611.014    
   3611.014    
  0.4041448    
  0.4041448    
  0.4041448    
  0.0000000E+00
  0.0000000E+00
   3.554472    
   3.554472    
   3.554472    
  0.0000000E+00
  0.0000000E+00
  0.0000000E+00
  0.0000000E+00
   997.0558    
   12891.84    
  0.0000000E+00
  0.0000000E+00
  0.0000000E+00
  -43.77294    
  0.0000000E+00
  0.0000000E+00
  0.0000000E+00
  0.0000000E+00
  0.0000000E+00
  0.0000000E+00
  0.0000000E+00
   10481.82    
   7603.784    
  0.0000000E+00
  -6.411621    
  0.0000000E+00
  -35.21106    
   287.7484    
  0.0000000E+00
  0.0000000E+00
   9270.229    
  -3.063757    
  -3.063757    
  -3.063757    
  0.0000000E+00
  -6.411621    
  -6.411621    
   287.7484    
   287.7484    
  0.0000000E+00
  0.0000000E+00
  0.0000000E+00
   2953.518    
   2953.518    
  0.0000000E+00
  0.0000000E+00
   2374.361    
  -11.69590    
  0.0000000E+00
  0.0000000E+00
  0.0000000E+00
  0.0000000E+00
   6566.900    
   6860.524    
  0.0000000E+00
  -107.6812    
  -9.117084    
  -9.117084    
  0.0000000E+00
  -2.700967    
  -2.700967    
  -2.700967    
  -45.05671    
  0.0000000E+00
  -73.97754    
   976.2346    
   4561.565    
  -22.30579    
  -67.25231    
   4781.062    
  -21.36405    
  -53.25436    
  -36.82417    
   4591.015    
   2.994089    
  0.0000000E+00
  -79.07029    
   5477.899    
  0.0000000E+00
  -7.046694    
  0.0000000E+00
  0.0000000E+00
  0.0000000E+00
   592.4894    
  -7.289094    
  -7.289094    
  -2.495255    
  -2.495255    
  -5.797616    
  -5.797616    
  -5.797616    
  -5.797616    
  -5.797616    
  0.0000000E+00
  0.0000000E+00
  0.0000000E+00
  0.0000000E+00
   1084.778    
  0.0000000E+00
  0.0000000E+00
  0.0000000E+00
  -7.180051    
  0.0000000E+00
  0.0000000E+00
  0.0000000E+00
  0.0000000E+00
   2368.904    
   1.293859    
  0.0000000E+00
  0.0000000E+00
  -7.883159    
  0.0000000E+00
  0.0000000E+00
  0.0000000E+00
   18161.72    
   22.09414    
  0.0000000E+00
  0.0000000E+00
  -8.936618    
  0.0000000E+00
  0.0000000E+00
  0.0000000E+00
  -11.76896    
  0.0000000E+00
  0.0000000E+00
  0.0000000E+00
  0.0000000E+00
  0.0000000E+00
  0.0000000E+00
  0.0000000E+00
  0.0000000E+00
  0.0000000E+00
  0.0000000E+00
  -27.52352    
  0.0000000E+00
  0.0000000E+00
  0.0000000E+00
  0.0000000E+00
  0.0000000E+00
  0.0000000E+00
  0.0000000E+00
  -8.829936    
  0.0000000E+00
  0.0000000E+00
  0.0000000E+00
  0.0000000E+00
  0.0000000E+00
  -34.87825    
  0.0000000E+00
  0.0000000E+00
  0.0000000E+00
  0.0000000E+00
  0.0000000E+00
  0.0000000E+00
   7106.525    
  -49.44019    
  0.0000000E+00
  0.0000000E+00
  0.0000000E+00
  0.0000000E+00
  0.0000000E+00
  0.0000000E+00
  0.0000000E+00
  0.0000000E+00
  0.0000000E+00
  0.0000000E+00
  0.0000000E+00
  0.0000000E+00
   13.14931    
  -52.90247    
  0.0000000E+00
  0.0000000E+00
  0.0000000E+00
  0.0000000E+00
  0.0000000E+00
   7302.863    
  -40.91358    
  0.0000000E+00
  0.0000000E+00
  0.0000000E+00
  0.0000000E+00
  0.0000000E+00
   478.1042    
   478.1042    
   478.1042    
  -3192.742    
  -3192.742    
  -3192.742    
  0.0000000E+00
  0.0000000E+00
  0.0000000E+00
  0.0000000E+00
   7258.203    
   57976.89    
   22214.89    
  0.0000000E+00
   1189.898    
   6121.092    
   6060.704    
   5788.794    
  -4054.744    
  -4054.744    
  -4054.744    
  0.0000000E+00
   95671.37    
  0.0000000E+00
  0.0000000E+00
  0.0000000E+00
  0.0000000E+00
  0.0000000E+00
   104579.4    
  0.0000000E+00
   118295.8    
  0.0000000E+00
  0.0000000E+00
  0.0000000E+00
   100944.0    
   4351.639    
   4351.639    
   4351.639    
  0.0000000E+00
  0.0000000E+00
  0.0000000E+00
   132639.9    
   4668.213    
  0.0000000E+00
   6195.585    
  0.0000000E+00
  0.0000000E+00
  0.0000000E+00
  0.0000000E+00
   15970.83    
   97470.34    
   6195.585    
   6195.585    
  0.0000000E+00
   114427.3    
   5866.871    
  0.0000000E+00
  0.0000000E+00
   61820.00    
   175266.8    
   7670.115    
   7431.635    
   37786.26    
   37786.26    
   37786.26    
   102721.5    
   46435.64    
   7431.635    
   96957.40    
   6822.251    
   97282.46    
  0.0000000E+00
   3510.227    
   3510.227    
   2867.240    
   2867.240    
   101906.5    
  0.0000000E+00
   7463.747    
   68586.07    
   68433.01    
   1385.519    
   5171.902    
  0.0000000E+00
   21426.35    
   117618.8    
   7707.391    
  0.0000000E+00
  0.0000000E+00
  0.0000000E+00
  0.0000000E+00
   18750.38    
  0.0000000E+00
  0.0000000E+00
   4498.940    
   4898.316    
  0.0000000E+00
  0.0000000E+00
   14286.37    
   14286.37    
   14286.37    
  0.0000000E+00
   1067.849    
   5571.028    
   8042.472    
   4618.486    
   4618.486    
   4618.486    
   583.7836    
   7310.561    
   7310.561    
   7310.561    
   1414.226    
   1414.226    
  0.0000000E+00
  0.0000000E+00
   95548.08    
   2527.625    
   6906.970    
   165.3499    
   4983.161    
  0.0000000E+00
  0.0000000E+00
  0.0000000E+00
   100743.2    
   6603.580    
   47433.63    
   75263.02    
   5518.418    
   1121.815    
   97787.25    
   5837.027    
   93038.43    
   6994.443    
   94113.23    
   5973.423    
   979.2947    
   86514.41    
   18210.07    
   6885.047    
   38106.85    
   18210.07    
   18210.07    
   18210.07    
  0.0000000E+00
   33381.41    
   33381.41    
   33381.41    
   109236.3    
  0.0000000E+00
   67235.46    
  0.0000000E+00
  0.0000000E+00
  0.0000000E+00
  0.0000000E+00
  0.0000000E+00
  0.0000000E+00
  0.0000000E+00
  0.0000000E+00
   47144.70    
  0.0000000E+00
  0.0000000E+00
  0.0000000E+00
  0.0000000E+00
  0.0000000E+00
   5798.593    
  0.0000000E+00
  0.0000000E+00
  0.0000000E+00
  0.0000000E+00
  0.0000000E+00
   36950.49    
   36950.49    
  0.0000000E+00
  0.0000000E+00
  0.0000000E+00
   21100.03    
   21100.03    
   21100.03    
  0.0000000E+00
  0.0000000E+00
  0.0000000E+00
   109650.3    
  0.0000000E+00
  0.0000000E+00
  0.0000000E+00
  0.0000000E+00
   118201.4    
   87.01976    
   1058.024    
   1058.024    
   1058.024    
   119293.2    
   112743.8    
   35.16185    
   1206.242    
   1206.242    
   94402.20    
   1355.860    
   83259.12    
  0.0000000E+00
  0.0000000E+00
  0.0000000E+00
  0.0000000E+00
  0.0000000E+00
   69334.36    
  -129.7503    
  -129.7503    
  -129.7503    
  0.0000000E+00
   79194.81    
  0.0000000E+00
  0.0000000E+00
  0.0000000E+00
  0.0000000E+00
   54909.09    
  -48.57137    
  -48.57137    
  -48.57137    
   18828.01    
   18828.01    
  0.0000000E+00
  0.0000000E+00
   27996.20    
   37064.23    
  0.0000000E+00
  0.0000000E+00
  0.0000000E+00
  0.0000000E+00
   56524.53    
  -1923.252    
  -1923.252    
  0.0000000E+00
  -921.9262    
  -921.9262    
  -921.9262    
  -921.9262    
   20002.12    
   30268.43    
   41782.73    
   2864.138    
   23741.46    
   21017.06    
  -1043.478    
  -1043.478    
  -1043.478    
  0.0000000E+00
   24286.99    
   36301.75    
  0.0000000E+00
  0.0000000E+00
  0.0000000E+00
  0.0000000E+00
  0.0000000E+00
  0.0000000E+00
   42228.78    
   76728.63    
  0.0000000E+00
   103541.2    
  0.0000000E+00
   77546.29    
   31387.93    
   12867.36    
   22788.75    
   22788.75    
   22788.75    
   73806.09    
  0.0000000E+00
   21506.98    
   21506.98    
   121175.6    
   109105.9    
   100937.0    
   150259.0    
   90318.92    
   68092.43    
   115435.7    
   67402.60    
   67402.60    
   67402.60    
  0.0000000E+00
   85321.36    
   94994.08    
   32888.38    
   40695.09    
   109536.5    
   38846.25    
   61655.69    
   90647.21    
   24391.72    
   26557.72    
   44637.93    
   3269.946    
  -4448.015    
   14546.01    
   78844.15    
   52094.25    
 
 month:           8 year:        2002
  0.0000000E+00
  0.0000000E+00
  0.0000000E+00
  0.0000000E+00
  0.0000000E+00
  0.0000000E+00
  0.0000000E+00
  0.0000000E+00
  0.0000000E+00
  0.0000000E+00
  0.0000000E+00
  0.0000000E+00
  0.0000000E+00
  0.0000000E+00
  0.0000000E+00
  0.0000000E+00
  0.0000000E+00
  0.0000000E+00
  0.0000000E+00
  0.0000000E+00
  0.0000000E+00
  0.0000000E+00
  0.0000000E+00
  0.0000000E+00
  0.0000000E+00
  0.0000000E+00
  0.0000000E+00
  0.0000000E+00
  0.0000000E+00
   2775.371    
   559.3160    
   559.3160    
   559.3160    
  0.0000000E+00
  0.0000000E+00
[...]
   4.768308    
   273.4384    
  0.0000000E+00
  -106.0930    
  -100.3733    
   5.716935    
   14.25418    
  -73.01297    
  -23.83298    
  -23.50137    
  -9.538913    
  -9.538913    
  0.0000000E+00
  0.0000000E+00
   330.0458    
   244.9637    
  -29.60528    
  -29.60528    
  -16.19150    
  -16.19150    
  -138.1168    
   5.716935    
   14.25418    
  0.0000000E+00
   281.0026    
  0.0000000E+00
  -53.05342    
  -53.05342    
  -53.05342    
  -14.34229    
   125.0603    
   321.9687    
  -132.3717    
  0.0000000E+00
  0.0000000E+00
   127.6496    
   127.6496    
   182.4295    
  -45.01521    
  0.0000000E+00
   232.4601    
  0.0000000E+00
  -167.2754    
   292.8072    
  -120.9872    
   271.0751    
  -133.8652    
   277.0010    
  0.0000000E+00
  -157.4715    
   298.9746    
  0.0000000E+00
  -146.2727    
  0.0000000E+00
  0.0000000E+00
  0.0000000E+00
   96.15308    
   96.15308    
  0.0000000E+00
  0.0000000E+00
  0.0000000E+00
  0.0000000E+00
  0.0000000E+00
  -3.672955    
  -3.672955    
  -3.672955    
  0.0000000E+00
  0.0000000E+00
  0.0000000E+00
  0.0000000E+00
   33.27166    
  -5.925611    
  0.0000000E+00
  0.0000000E+00
  0.0000000E+00
  -45.23204    
  0.0000000E+00
  0.0000000E+00
  0.0000000E+00
  -39.84277    
  -24.79705    
  0.0000000E+00
  0.0000000E+00
   349.7774    
   253.7376    
  0.0000000E+00
  -9.938013    
  0.0000000E+00
  -30.01743    
  -4.707232    
  0.0000000E+00
  0.0000000E+00
   309.3466    
 -0.4522689    
 -0.4522689    
 -0.4522689    
  0.0000000E+00
  -9.938013    
  -9.938013    
  -4.707232    
  -4.707232    
  0.0000000E+00
  0.0000000E+00
  0.0000000E+00
  0.0000000E+00
  0.0000000E+00
  0.0000000E+00
  0.0000000E+00
   39.56685    
  -13.18447    
  0.0000000E+00
  0.0000000E+00
  0.0000000E+00
  0.0000000E+00
  -19.58759    
  -8.916307    
  0.0000000E+00
  -107.6812    
 -0.5541756    
 -0.5541756    
  0.0000000E+00
 -0.6977499    
 -0.6977499    
 -0.6977499    
  -38.79883    
  -37.85906    
  -73.97754    
   92.30691    
  0.0000000E+00
  -27.65918    
  -67.25232    
  -1.426084    
  -23.65306    
  -53.25436    
  -36.82417    
  0.0000000E+00
  0.0000000E+00
  0.0000000E+00
  -79.07029    
  0.0000000E+00
  0.0000000E+00
  -8.566569    
  0.0000000E+00
  0.0000000E+00
  0.0000000E+00
   60.87981    
  -1.614014    
  -1.614014    
  -3.351959    
  -3.351959    
  -4.493152    
  -4.493152    
  -4.493152    
  -4.493152    
  -4.493152    
  0.0000000E+00
  0.0000000E+00
  0.0000000E+00
  0.0000000E+00
   111.3820    
  -9.134033    
  -9.134033    
  -9.134033    
  -33.38723    
  0.0000000E+00
  0.0000000E+00
  0.0000000E+00
  0.0000000E+00
   66.42824    
  -69.52334    
  0.0000000E+00
  0.0000000E+00
  -80.87746    
  0.0000000E+00
  0.0000000E+00
  0.0000000E+00
  -84.13914    
  -49.63176    
  0.0000000E+00
  0.0000000E+00
  -79.07045    
  0.0000000E+00
  0.0000000E+00
  0.0000000E+00
  -83.66943    
  0.0000000E+00
  0.0000000E+00
  0.0000000E+00
  0.0000000E+00
  0.0000000E+00
  0.0000000E+00
  0.0000000E+00
  0.0000000E+00
  0.0000000E+00
  0.0000000E+00
  -100.7981    
  0.0000000E+00
  0.0000000E+00
  0.0000000E+00
  0.0000000E+00
  0.0000000E+00
  0.0000000E+00
  0.0000000E+00
  -78.46873    
  0.0000000E+00
  0.0000000E+00
  0.0000000E+00
  0.0000000E+00
  0.0000000E+00
  -105.8415    
  0.0000000E+00
  0.0000000E+00
  0.0000000E+00
  0.0000000E+00
  0.0000000E+00
  0.0000000E+00
   14.69088    
  -137.0366    
  0.0000000E+00
  0.0000000E+00
  0.0000000E+00
  0.0000000E+00
  0.0000000E+00
  0.0000000E+00
  0.0000000E+00
  0.0000000E+00
  0.0000000E+00
  0.0000000E+00
  0.0000000E+00
  0.0000000E+00
  -59.63457    
  -136.3708    
  0.0000000E+00
  0.0000000E+00
  0.0000000E+00
  0.0000000E+00
  0.0000000E+00
  -60.09878    
  -109.3843    
  0.0000000E+00
  0.0000000E+00
  0.0000000E+00
  0.0000000E+00
  0.0000000E+00
   24.26708    
   24.26708    
   24.26708    
  -3183.655    
  -3183.655    
  -3183.655    
  0.0000000E+00
  0.0000000E+00
  0.0000000E+00
  0.0000000E+00
   352.9479    
  -2593.839    
  -1955.627    
  0.0000000E+00
   57.86172    
   297.6531    
   294.7166    
   281.4944    
  -5071.795    
  -5071.795    
  -5071.795    
  0.0000000E+00
   8619.511    
  0.0000000E+00
  0.0000000E+00
  0.0000000E+00
  0.0000000E+00
  0.0000000E+00
  -1279.001    
  0.0000000E+00
  -6703.101    
  0.0000000E+00
  0.0000000E+00
  0.0000000E+00
   9095.182    
   868.7045    
   868.7045    
   868.7045    
  0.0000000E+00
  0.0000000E+00
  0.0000000E+00
  -682.5026    
   929.1727    
  0.0000000E+00
   1233.185    
  0.0000000E+00
  0.0000000E+00
  0.0000000E+00
  0.0000000E+00
   1443.793    
   9402.001    
   1233.185    
   1233.185    
  0.0000000E+00
   11037.68    
   1167.757    
  0.0000000E+00
  0.0000000E+00
   5963.164    
  -1056.391    
   1527.082    
   1479.601    
   1395.876    
   1395.876    
   1395.876    
  -2678.822    
   4479.188    
   1479.601    
   9252.483    
   1358.276    
   9283.503    
  0.0000000E+00
   698.8688    
   698.8688    
   570.8532    
   570.8532    
   9724.771    
  0.0000000E+00
   1485.995    
   6545.055    
   6530.447    
   275.8499    
   1029.700    
  0.0000000E+00
   2044.681    
  -1186.491    
   1534.504    
  0.0000000E+00
  0.0000000E+00
  0.0000000E+00
  0.0000000E+00
   1789.318    
  0.0000000E+00
  0.0000000E+00
   895.7166    
   975.2307    
  0.0000000E+00
  0.0000000E+00
   119.0585    
   119.0585    
   119.0585    
  0.0000000E+00
   238.2173    
   1242.793    
   1794.127    
   1017.435    
   1017.435    
   1017.435    
   116.2284    
   1455.496    
   1455.496    
   1455.496    
   280.9975    
   280.9975    
  0.0000000E+00
  0.0000000E+00
  -645.6096    
   563.8663    
   1540.816    
   35.92832    
   1079.850    
  0.0000000E+00
  0.0000000E+00
  0.0000000E+00
  -2471.267    
   1473.136    
   4548.211    
  -4069.298    
   1231.057    
   250.2561    
  -3740.941    
   1302.133    
  -2266.044    
   1560.330    
   972.3334    
   1332.560    
   218.4625    
  -1451.584    
  -2023.730    
   1535.926    
   3653.906    
  -2023.730    
  -2023.730    
  -2023.730    
  0.0000000E+00
  -214.7803    
  -214.7803    
  -214.7803    
   2314.708    
  0.0000000E+00
  -6689.054    
  0.0000000E+00
  0.0000000E+00
  0.0000000E+00
  0.0000000E+00
  0.0000000E+00
  0.0000000E+00
  0.0000000E+00
  0.0000000E+00
  -5300.839    
  0.0000000E+00
  0.0000000E+00
  0.0000000E+00
  0.0000000E+00
  0.0000000E+00
   608.1245    
  0.0000000E+00
  0.0000000E+00
  0.0000000E+00
  0.0000000E+00
  0.0000000E+00
  -2003.732    
  -2003.732    
  0.0000000E+00
  0.0000000E+00
  0.0000000E+00
  -831.2438    
  -831.2438    
  -831.2438    
  0.0000000E+00
  0.0000000E+00
  0.0000000E+00
  -4408.655    
  0.0000000E+00
  0.0000000E+00
  0.0000000E+00
  0.0000000E+00
  -6771.271    
   38.84465    
   471.1318    
   471.1318    
   471.1318    
  -1711.047    
  -688.6286    
   15.65736    
   537.1325    
   537.1325    
  -4982.591    
   603.7562    
  -3846.044    
  0.0000000E+00
  0.0000000E+00
  0.0000000E+00
  0.0000000E+00
  0.0000000E+00
   6324.893    
  -464.7945    
  -464.7945    
  -464.7945    
  0.0000000E+00
  -1623.805    
  0.0000000E+00
  0.0000000E+00
  0.0000000E+00
  0.0000000E+00
  -3366.654    
  -171.1312    
  -171.1312    
  -171.1312    
   45.32577    
   45.32577    
  0.0000000E+00
  0.0000000E+00
  -703.6213    
  -2063.990    
  0.0000000E+00
  0.0000000E+00
  0.0000000E+00
  0.0000000E+00
   1168.448    
  -2500.637    
  -2500.637    
  0.0000000E+00
  -1053.967    
  -1053.967    
  -1053.967    
  -1053.967    
  -3301.836    
   719.6783    
   6913.427    
  -4781.342    
  -940.9196    
   3537.505    
  -1533.189    
  -1533.189    
  -1533.189    
  0.0000000E+00
   4087.887    
  -4818.056    
  0.0000000E+00
  0.0000000E+00
  0.0000000E+00
  0.0000000E+00
  0.0000000E+00
  0.0000000E+00
   7107.776    
  -3930.429    
  0.0000000E+00
  -1120.436    
  0.0000000E+00
   978.3812    
   5283.087    
   2176.360    
   400.9619    
   400.9619    
   400.9619    
  -1919.851    
  0.0000000E+00
   3634.603    
   3634.603    
  -266.4918    
  -234.4781    
   386.6014    
  -1140.407    
   1245.500    
   11512.51    
   215.0462    
   7.997705    
   7.997705    
   7.997705    
  0.0000000E+00
  -707.2366    
  -684.3201    
   5560.498    
   6880.391    
  -1185.962    
   6567.806    
  -1833.528    
  -1161.158    
  -2767.435    
  -1431.933    
   1454.856    
  -8437.146    
  -4960.120    
   2818.871    
   13330.32    
  -1896.951    
 
 month:          12 year:        2002
  0.0000000E+00
  0.0000000E+00
  0.0000000E+00
  0.0000000E+00
  0.0000000E+00
  0.0000000E+00
  0.0000000E+00
  0.0000000E+00
  0.0000000E+00
  0.0000000E+00
  0.0000000E+00
  0.0000000E+00
  0.0000000E+00
  0.0000000E+00
  0.0000000E+00
  0.0000000E+00
  0.0000000E+00
  0.0000000E+00
  0.0000000E+00
  0.0000000E+00
  0.0000000E+00
  0.0000000E+00
  0.0000000E+00
  0.0000000E+00
  0.0000000E+00
  0.0000000E+00
  0.0000000E+00
  0.0000000E+00
  0.0000000E+00
   97.91164    
   20.39858    
   20.39858    
   20.39858    
  0.0000000E+00
  0.0000000E+00
  0.0000000E+00
   76.29492    
   76.29492    
   76.29492    
  -21.64952    
   25.38063    
   507.6322    
   40.88401    
  -4.101518    
  -8.382446    
   363.2970    
   291.0527    
  0.0000000E+00
  0.0000000E+00
  0.0000000E+00
  0.0000000E+00
  -9.627591    
   11.02100    
  0.0000000E+00
  -28.73927    
  -28.73927    
   336.2503    
  0.0000000E+00
  0.0000000E+00
  -5.466180    
  -5.466180    
  -5.466180    
   17.43953    
   17.43953    
   17.43953    
  0.0000000E+00
  -4.565500    
   10.17705    
   2.762076    
 -0.4652202    
 -0.4359832    
   3.894589    
  0.0000000E+00
   5.583316    
  0.0000000E+00
  0.0000000E+00
  -12.40158    
  0.0000000E+00
  0.0000000E+00
   9.441844    
   9.441844    
   9.441844    
  0.0000000E+00
  0.0000000E+00
  0.0000000E+00
  0.0000000E+00
  -24.67505    
  0.0000000E+00
  0.0000000E+00
  0.0000000E+00
  0.0000000E+00
  0.0000000E+00
  0.0000000E+00
  0.0000000E+00
   1.754897    
  0.0000000E+00
  0.0000000E+00
  0.0000000E+00
  0.0000000E+00
  0.0000000E+00
  0.0000000E+00
  0.0000000E+00
   117.1134    
  0.0000000E+00
  0.0000000E+00
  0.0000000E+00
  0.0000000E+00
  0.0000000E+00
  0.0000000E+00
  0.0000000E+00
   12.40201    
  0.0000000E+00
  0.0000000E+00
  0.0000000E+00
  0.0000000E+00
  0.0000000E+00
  0.0000000E+00
  0.0000000E+00
   9.267094    
  -30.95362    
  0.0000000E+00
  0.0000000E+00
  0.0000000E+00
  0.0000000E+00
  0.0000000E+00
  0.0000000E+00
  0.0000000E+00
  0.0000000E+00
   35.98581    
  -15.07861    
  0.0000000E+00
  0.0000000E+00
  0.0000000E+00
  0.0000000E+00
  0.0000000E+00
  0.0000000E+00
  -40.39657    
   141.4361    
   141.4361    
   141.4361    
  0.0000000E+00
  0.0000000E+00
  0.0000000E+00
  0.0000000E+00
  0.0000000E+00
  0.0000000E+00
  0.0000000E+00
  0.0000000E+00
  0.0000000E+00
  0.0000000E+00
  -14.79561    
   42.93578    
   427.8919    
  -16.17912    
  -16.17912    
  -16.17912    
  0.0000000E+00
  0.0000000E+00
  0.0000000E+00
  -18.25616    
   478.3068    
  -34.64001    
 -0.4771665    
 -0.4771665    
 -0.4771665    
  0.2428679    
   432.8172    
  0.0000000E+00
  -46.02477    
  -99.44818    
   5.993561    
   13.97429    
  -75.36823    
  -27.20390    
  -23.37502    
  -11.69286    
  -11.69286    
  0.0000000E+00
  0.0000000E+00
   522.4194    
   637.1650    
  -13.97575    
  -13.97575    
  -18.80303    
  -18.80303    
  -137.9930    
   5.993561    
   13.97429    
  0.0000000E+00
   444.7906    
  0.0000000E+00
  -43.51019    
  -43.51019    
  -43.51019    
  -14.22662    
   197.9543    
   509.6346    
  -70.42558    
  0.0000000E+00
  0.0000000E+00
   202.0526    
   202.0526    
   288.7622    
   22.84778    
  0.0000000E+00
   367.9543    
  0.0000000E+00
  -98.50207    
   463.4758    
  -53.98889    
   429.0763    
  -68.25591    
   438.4565    
  0.0000000E+00
  -92.27393    
   473.2381    
  0.0000000E+00
  -79.23956    
  0.0000000E+00
  0.0000000E+00
  0.0000000E+00
   151.9839    
   151.9839    
  -2.020724    
  -2.020724    
  -2.020724    
  0.0000000E+00
  0.0000000E+00
   2.538909    
   2.538909    
   2.538909    
  0.0000000E+00
  0.0000000E+00
  0.0000000E+00
  0.0000000E+00
   97.36388    
  -8.792842    
  0.0000000E+00
  0.0000000E+00
  0.0000000E+00
  -44.50249    
  0.0000000E+00
  0.0000000E+00
  0.0000000E+00
  -39.84277    
  -34.52753    
  0.0000000E+00
  0.0000000E+00
   1023.564    
   742.5200    
  0.0000000E+00
  -10.68604    
  0.0000000E+00
  -34.33079    
  -4.818196    
  0.0000000E+00
  0.0000000E+00
   905.2507    
  -3.939116    
  -3.939116    
  -3.939116    
  0.0000000E+00
  -10.68604    
  -10.68604    
  -4.818196    
  -4.818196    
  0.0000000E+00
  0.0000000E+00
  0.0000000E+00
 -0.4044253    
 -0.4044253    
  0.0000000E+00
  0.0000000E+00
   71.68543    
  -8.506111    
  0.0000000E+00
  0.0000000E+00
  -14.31291    
  -14.31291    
  -20.21945    
  -12.65540    
  0.0000000E+00
  -107.6812    
  -3.754093    
  -3.754093    
  0.0000000E+00
  -2.025725    
  -2.025725    
  -2.025725    
  -38.48594    
  -37.85906    
  -73.97754    
   286.1166    
  -3.072351    
  -27.65918    
  -67.25231    
  -5.520324    
  -22.89005    
  -53.25436    
  -36.82417    
  -2.208705    
   1.197636    
  0.0000000E+00
  -79.07029    
 -0.9949864    
  0.0000000E+00
  -11.19181    
  0.0000000E+00
  0.0000000E+00
  0.0000000E+00
   165.8355    
  -3.384222    
  -3.384222    
  -3.742882    
  -3.742882    
  -3.865077    
  -3.865077    
  -3.865077    
  -3.865077    
  -3.865077    
  0.0000000E+00
  0.0000000E+00
  0.0000000E+00
  0.0000000E+00
   303.3557    
 -0.7366156    
 -0.7366156    
 -0.7366156    
  -8.855397    
  0.0000000E+00
  0.0000000E+00
  0.0000000E+00
  0.0000000E+00
   121.0409    
  -7.116223    
  0.0000000E+00
  0.0000000E+00
  -20.27098    
  0.0000000E+00
  0.0000000E+00
  0.0000000E+00
  -18.59706    
   14.40922    
  0.0000000E+00
  0.0000000E+00
  -11.72931    
  0.0000000E+00
  0.0000000E+00
  0.0000000E+00
  -17.41805    
  0.0000000E+00
  0.0000000E+00
  0.0000000E+00
  0.0000000E+00
  0.0000000E+00
  0.0000000E+00
  0.0000000E+00
  0.0000000E+00
  0.0000000E+00
  0.0000000E+00
  -36.02343    
  0.0000000E+00
  0.0000000E+00
  0.0000000E+00
  0.0000000E+00
  0.0000000E+00
  0.0000000E+00
  0.0000000E+00
  -16.33538    
  0.0000000E+00
  0.0000000E+00
  0.0000000E+00
  0.0000000E+00
  0.0000000E+00
  -42.38369    
  0.0000000E+00
  0.0000000E+00
  0.0000000E+00
  0.0000000E+00
  0.0000000E+00
  0.0000000E+00
   79.90731    
  -73.28780    
  0.0000000E+00
  0.0000000E+00
  0.0000000E+00
  0.0000000E+00
  0.0000000E+00
  0.0000000E+00
  0.0000000E+00
  0.0000000E+00
  0.0000000E+00
  0.0000000E+00
  0.0000000E+00
  0.0000000E+00
   6.087646    
  -73.38084    
  0.0000000E+00
  0.0000000E+00
  0.0000000E+00
  0.0000000E+00
  0.0000000E+00
  -16.93622    
  -47.40780    
  0.0000000E+00
  0.0000000E+00
  0.0000000E+00
  0.0000000E+00
  0.0000000E+00
   45.19615    
   45.19615    
   45.19615    
  -3159.663    
  -3159.663    
  -3159.663    
  0.0000000E+00
  0.0000000E+00
  0.0000000E+00
  0.0000000E+00
   685.7126    
  -2574.418    
  -1971.354    
  0.0000000E+00
   112.4146    
   578.2851    
   572.5800    
   546.8914    
  -5040.361    
  -5040.361    
  -5040.361    
  0.0000000E+00
   6461.366    
  0.0000000E+00
  0.0000000E+00
  0.0000000E+00
  0.0000000E+00
  0.0000000E+00
  -1146.595    
  0.0000000E+00
  -6612.957    
  0.0000000E+00
  0.0000000E+00
  0.0000000E+00
   6816.946    
   1077.923    
   1077.923    
   1077.923    
  0.0000000E+00
  0.0000000E+00
  0.0000000E+00
  -603.7891    
   1157.683    
  0.0000000E+00
   1536.461    
  0.0000000E+00
  0.0000000E+00
  0.0000000E+00
  0.0000000E+00
   1080.601    
   6853.644    
   1536.461    
   1536.461    
  0.0000000E+00
   8045.978    
   1454.942    
  0.0000000E+00
  0.0000000E+00
   4346.884    
  -1100.730    
   1899.070    
   1840.023    
   1395.460    
   1395.460    
   1395.460    
  -2697.943    
   3265.130    
   1840.023    
   2093.843    
   1689.144    
   6805.466    
  0.0000000E+00
   869.1088    
   869.1088    
   709.9096    
   709.9096    
   7128.947    
  0.0000000E+00
   1847.974    
   4797.989    
   4787.280    
   343.0452    
   1280.528    
  0.0000000E+00
   1498.896    
  -1220.023    
   1908.299    
  0.0000000E+00
  0.0000000E+00
  0.0000000E+00
  0.0000000E+00
   1311.697    
  0.0000000E+00
  0.0000000E+00
   1113.908    
   1212.790    
  0.0000000E+00
  0.0000000E+00
   96.23315    
   96.23315    
   96.23315    
  0.0000000E+00
   291.6291    
   1521.446    
   2196.396    
   1252.330    
   1252.330    
   1252.330    
   144.5409    
   1810.046    
   1810.046    
   1810.046    
   349.1550    
   349.1550    
  0.0000000E+00
  0.0000000E+00
  -657.0302    
   690.2935    
   1886.291    
   44.37438    
   1336.681    
  0.0000000E+00
  0.0000000E+00
  0.0000000E+00
  -2498.407    
   1803.435    
   3385.809    
  -4050.974    
   1507.078    
   306.3673    
  -3709.254    
   1594.090    
  -2246.213    
   1910.180    
   965.3571    
   1631.340    
   267.4451    
  -1470.720    
  -2086.675    
   1880.304    
   2720.064    
  -2086.675    
  -2086.675    
  -2086.675    
  0.0000000E+00
  -216.0649    
  -216.0649    
  -216.0649    
   2384.536    
  0.0000000E+00
  -6630.432    
  0.0000000E+00
  0.0000000E+00
  0.0000000E+00
  0.0000000E+00
  0.0000000E+00
  0.0000000E+00
  0.0000000E+00
  0.0000000E+00
  -5241.516    
  0.0000000E+00
  0.0000000E+00
  0.0000000E+00
  0.0000000E+00
  0.0000000E+00
   470.9585    
  0.0000000E+00
  0.0000000E+00
  0.0000000E+00
  0.0000000E+00
  0.0000000E+00
  -1970.235    
  -1970.235    
  0.0000000E+00
  0.0000000E+00
  0.0000000E+00
  -796.3918    
  -796.3918    
  -796.3918    
  0.0000000E+00
  0.0000000E+00
  0.0000000E+00
  -4415.518    
  0.0000000E+00
  0.0000000E+00
  0.0000000E+00
  0.0000000E+00
  -6777.828    
   33.82947    
   410.0509    
   410.0509    
   410.0509    
  -1709.142    
  -505.1029    
   13.62744    
   467.4950    
   467.4950    
  -4943.064    
   525.4812    
  -3808.778    
  0.0000000E+00
  0.0000000E+00
  0.0000000E+00
  0.0000000E+00
  0.0000000E+00
   6442.233    
  -461.9111    
  -461.9111    
  -461.9111    
  0.0000000E+00
  -1635.309    
  0.0000000E+00
  0.0000000E+00
  0.0000000E+00
  0.0000000E+00
  -3380.228    
  -165.0256    
  -165.0256    
  -165.0256    
   60.54419    
   60.54419    
  0.0000000E+00
  0.0000000E+00
  -691.9468    
  -2074.001    
  0.0000000E+00
  0.0000000E+00
  0.0000000E+00
  0.0000000E+00
   1160.430    
  -2504.804    
  -2504.804    
  0.0000000E+00
  -1057.867    
  -1057.867    
  -1057.867    
  -1057.867    
  -3301.169    
   724.0620    
   4835.991    
  -4790.212    
  -941.2030    
   2502.300    
  -1526.984    
  -1526.984    
  -1526.984    
  0.0000000E+00
   2891.620    
  -4784.892    
  0.0000000E+00
  0.0000000E+00
  0.0000000E+00
  0.0000000E+00
  0.0000000E+00
  0.0000000E+00
   5027.777    
  -3888.146    
  0.0000000E+00
  -1091.458    
  0.0000000E+00
   1027.909    
   3737.060    
   1548.054    
   395.6548    
   395.6548    
   395.6548    
  -1868.136    
  0.0000000E+00
   2592.442    
   2592.442    
  -316.1296    
  -252.0307    
   371.8304    
  -1258.835    
   1222.473    
   8286.169    
   227.2017    
   9.674644    
   9.674644    
   9.674644    
  0.0000000E+00
  -670.3107    
  -649.6759    
   4002.188    
   4952.185    
  -1184.845    
   4727.200    
  -1796.816    
  -1112.457    
  -2725.163    
  -1390.105    
   1507.594    
  -8445.536    
  -4961.935    
   2873.113    
   9594.545    
  -1870.696    
 
