 Groundwater/Surface Water exchange (m3/day)
 for each APEX subarea
 --Calculated from MODFLOW River Package--
 Positive: Volume entering stream from the aquifer
 Negative: Volume seeps from stream to the aquifer
 
 Day:           1
 Daily GW/SW Exchange for each Subarea
 Aquifer/Stream       Drain/Stream
  0.0000000E+00  0.0000000E+00
  0.0000000E+00  0.0000000E+00
  0.0000000E+00  0.0000000E+00
  0.0000000E+00  0.0000000E+00
  0.0000000E+00  0.0000000E+00
  0.0000000E+00  0.0000000E+00
  0.0000000E+00  0.0000000E+00
  0.0000000E+00  0.0000000E+00
  0.0000000E+00  0.0000000E+00
  0.0000000E+00  0.0000000E+00
  0.0000000E+00  0.0000000E+00
  0.0000000E+00  0.0000000E+00
  0.0000000E+00  0.0000000E+00
  0.0000000E+00  0.0000000E+00
  0.0000000E+00  0.0000000E+00
  0.0000000E+00  0.0000000E+00
  0.0000000E+00  0.0000000E+00
  0.0000000E+00  0.0000000E+00
  0.0000000E+00  0.0000000E+00
  0.0000000E+00  0.0000000E+00
  0.0000000E+00  0.0000000E+00
  0.0000000E+00  0.0000000E+00
  0.0000000E+00  0.0000000E+00
  0.0000000E+00  0.0000000E+00
  0.0000000E+00  0.0000000E+00
  0.0000000E+00  0.0000000E+00
  0.0000000E+00  0.0000000E+00
  0.0000000E+00  0.0000000E+00
  0.0000000E+00  0.0000000E+00
  0.0000000E+00  0.0000000E+00
  0.0000000E+00  0.0000000E+00
  0.0000000E+00  0.0000000E+00
  0.0000000E+00  0.0000000E+00
  0.0000000E+00  0.0000000E+00
  0.0000000E+00  0.0000000E+00
  0.0000000E+00  0.0000000E+00
  0.0000000E+00  0.0000000E+00
  0.0000000E+00  0.0000000E+00
  0.0000000E+00  0.0000000E+00
  0.0000000E+00  0.0000000E+00
  0.0000000E+00  0.0000000E+00
  0.0000000E+00  0.0000000E+00
  0.0000000E+00  0.0000000E+00
  0.0000000E+00  0.0000000E+00
  0.0000000E+00  0.0000000E+00
  0.0000000E+00  0.0000000E+00
  0.0000000E+00  0.0000000E+00
  0.0000000E+00  0.0000000E+00
  0.0000000E+00  0.0000000E+00
  0.0000000E+00  0.0000000E+00
  0.0000000E+00  0.0000000E+00
  0.0000000E+00  0.0000000E+00
  0.0000000E+00  0.0000000E+00
  0.0000000E+00  0.0000000E+00
  0.0000000E+00  0.0000000E+00
  0.0000000E+00  0.0000000E+00
  0.0000000E+00  0.0000000E+00
  0.0000000E+00  0.0000000E+00
  0.0000000E+00  0.0000000E+00
  0.0000000E+00  0.0000000E+00
  0.0000000E+00  0.0000000E+00
  0.0000000E+00  0.0000000E+00
  0.0000000E+00  0.0000000E+00
  0.0000000E+00  0.0000000E+00
  0.0000000E+00  0.0000000E+00
  0.0000000E+00  0.0000000E+00
  0.0000000E+00  0.0000000E+00
  0.0000000E+00  0.0000000E+00
  0.0000000E+00  0.0000000E+00
  0.0000000E+00  0.0000000E+00
  0.0000000E+00  0.0000000E+00
  0.0000000E+00  0.0000000E+00
  0.0000000E+00  0.0000000E+00
  0.0000000E+00  0.0000000E+00
  0.0000000E+00  0.0000000E+00
 
 Day:         100
 Daily GW/SW Exchange for each Subarea
 Aquifer/Stream       Drain/Stream
  0.0000000E+00  0.0000000E+00
  0.0000000E+00  0.0000000E+00
  0.0000000E+00  0.0000000E+00
  0.0000000E+00  0.0000000E+00
  0.0000000E+00  0.0000000E+00
  0.0000000E+00  0.0000000E+00
  0.0000000E+00  0.0000000E+00
  0.0000000E+00  0.0000000E+00
  0.0000000E+00  0.0000000E+00
  0.0000000E+00  0.0000000E+00
  0.0000000E+00  0.0000000E+00
  0.0000000E+00  0.0000000E+00
  0.0000000E+00  0.0000000E+00
  0.0000000E+00  0.0000000E+00
  -56.14548      0.0000000E+00
  -44.54822      0.0000000E+00
  0.0000000E+00  0.0000000E+00
  0.0000000E+00  0.0000000E+00
  0.0000000E+00  0.0000000E+00
  0.0000000E+00  0.0000000E+00
  -166.8902      0.0000000E+00
  -343.8244      0.0000000E+00
  -623.8749      0.0000000E+00
  -4178.933      0.0000000E+00
  -5173.284      0.0000000E+00
  -184.2928      0.0000000E+00
  -319.0438      0.0000000E+00
  -273.0201      0.0000000E+00
  -2063.329      0.0000000E+00
  -1145.470      0.0000000E+00
  -6798.007      0.0000000E+00
  -4354.374      0.0000000E+00
  -3672.874      0.0000000E+00
  -940.9243      0.0000000E+00
  -3291.499      0.0000000E+00
  -3039.870      0.0000000E+00
  -74.01102      0.0000000E+00
  -1967.865      0.0000000E+00
  -28051.32      0.0000000E+00
 -0.4986305      0.0000000E+00
  -2424.815      0.0000000E+00
  -2722.511      0.0000000E+00
  -1904.355      0.0000000E+00
   147.3589      0.0000000E+00
  -256.4324      0.0000000E+00
  -7568.556      0.0000000E+00
  -752.2144      0.0000000E+00
  -6503.861      0.0000000E+00
  -691.1802      0.0000000E+00
  -814.2226      0.0000000E+00
  -7654.462      0.0000000E+00
  -21941.83      0.0000000E+00
  -1548.400      0.0000000E+00
  -363.9798      0.0000000E+00
  -10741.62      0.0000000E+00
  -13336.91      0.0000000E+00
  -2266.972      0.0000000E+00
  -3112.736      0.0000000E+00
  -1320.763      0.0000000E+00
  -15.17057      0.0000000E+00
  -7.632012      0.0000000E+00
  -8153.822      0.0000000E+00
  -4546.501      0.0000000E+00
  -11248.30      0.0000000E+00
  -1183.585      0.0000000E+00
  -749.5789      0.0000000E+00
  -15086.01      0.0000000E+00
  -3726.002      0.0000000E+00
  -1022.180      0.0000000E+00
  -1197.224      0.0000000E+00
  -9751.041      0.0000000E+00
  -3700.665      0.0000000E+00
  -425.0115      0.0000000E+00
  -9345.119      0.0000000E+00
  -19924.34      0.0000000E+00
